
Compatibility modes selected: hs a

Warning: m=xx on .subckt line will override multiplier m hierarchy!


Circuit: test netlist

option SCALE: Scale is set to 1e-06 for instance and model parameters
Warning: Model issue on line 153 :
  .model sky130_fd_pr__res_generic_po r tc1r=    8.916000000000000e-04     ...
unrecognized parameter (-tol_poly) - ignored
unrecognized parameter (/) - ignored
unrecognized parameter (-poly_dw) - ignored
unrecognized parameter (/) - ignored
Doing analysis at TEMP = 27.000000 and TNOM = 27.000000

Using transient initial conditions

No. of Data Rows : 3416
                                  test netlist
                                  Transient Analysis  Wed Oct 25 15:06:28  2023
--------------------------------------------------------------------------------
Index   time            cf              
--------------------------------------------------------------------------------
0	4.000000e-13	7.581869e-01	
1	4.111976e-13	7.603955e-01	
2	4.335927e-13	7.629228e-01	
3	4.783830e-13	7.634699e-01	
4	5.679635e-13	7.632652e-01	
5	7.471247e-13	7.629420e-01	
6	1.105447e-12	7.622690e-01	
7	1.822091e-12	7.609600e-01	
8	3.255380e-12	7.584069e-01	
9	6.121958e-12	7.536641e-01	
10	1.185511e-11	7.461437e-01	
11	2.332142e-11	7.376864e-01	
12	3.426897e-11	7.353147e-01	
13	4.000000e-11	7.354263e-01	
14	4.146650e-11	7.356113e-01	
15	4.439949e-11	7.360703e-01	
16	5.026547e-11	7.373905e-01	
17	6.199744e-11	7.403038e-01	
18	8.546137e-11	7.407778e-01	
19	1.254614e-10	7.242470e-01	
20	1.654614e-10	6.990811e-01	
21	2.054614e-10	6.688196e-01	
22	2.454614e-10	6.264375e-01	
23	2.854614e-10	5.735992e-01	
24	3.254614e-10	5.289785e-01	
25	3.654614e-10	4.987298e-01	
26	4.054614e-10	4.725383e-01	
27	4.454614e-10	4.452912e-01	
28	4.854614e-10	4.166138e-01	
29	5.254614e-10	3.859053e-01	
30	5.654614e-10	3.526524e-01	
31	6.054614e-10	3.168806e-01	
32	6.454614e-10	2.786574e-01	
33	6.854614e-10	2.380099e-01	
34	7.254614e-10	1.951540e-01	
35	7.654614e-10	1.507837e-01	
36	8.054614e-10	1.071778e-01	
37	8.454614e-10	6.902259e-02	
38	8.854614e-10	4.110836e-02	
39	9.254614e-10	2.395134e-02	
40	9.654614e-10	1.480120e-02	
41	1.005461e-09	1.053007e-02	
42	1.045461e-09	7.277459e-03	
43	1.085461e-09	4.170548e-03	
44	1.125461e-09	2.263841e-03	
45	1.165461e-09	1.185220e-03	
46	1.205461e-09	6.043521e-04	
47	1.245461e-09	3.005424e-04	
48	1.285461e-09	1.432758e-04	
49	1.325461e-09	6.481942e-05	
50	1.365461e-09	2.469298e-05	
51	1.405461e-09	6.115748e-06	
52	1.445461e-09	-3.54343e-06	
53	1.485461e-09	-7.26457e-06	
54	1.525461e-09	-1.01638e-05	

Index   time            cf              
--------------------------------------------------------------------------------
55	1.565461e-09	-1.12078e-05	
56	1.605461e-09	-1.24351e-05	
57	1.645461e-09	-1.22690e-05	
58	1.685461e-09	-1.22448e-05	
59	1.725461e-09	-1.14396e-05	
60	1.765461e-09	-1.13238e-05	
61	1.805461e-09	-1.02334e-05	
62	1.845461e-09	-9.45409e-06	
63	1.885461e-09	-8.53765e-06	
64	1.925461e-09	-8.03949e-06	
65	1.965461e-09	-7.35203e-06	
66	2.005461e-09	-6.97834e-06	
67	2.045461e-09	-6.47732e-06	
68	2.085461e-09	-6.21347e-06	
69	2.125461e-09	-5.82621e-06	
70	2.165461e-09	-5.62039e-06	
71	2.205461e-09	-5.31389e-06	
72	2.245461e-09	-5.15104e-06	
73	2.285461e-09	-4.89175e-06	
74	2.325461e-09	-4.86874e-06	
75	2.365461e-09	-4.93804e-06	
76	2.405461e-09	-4.72133e-06	
77	2.445461e-09	-5.06349e-06	
78	2.485461e-09	-1.27347e-05	
79	2.525461e-09	-4.03317e-05	
80	2.565461e-09	-7.69319e-05	
81	2.605461e-09	-6.74293e-05	
82	2.645461e-09	-4.33926e-06	
83	2.685461e-09	4.544784e-05	
84	2.725461e-09	5.252690e-05	
85	2.765461e-09	3.740634e-05	
86	2.805461e-09	2.058616e-05	
87	2.845461e-09	9.181122e-06	
88	2.885461e-09	2.782384e-06	
89	2.925461e-09	-4.40235e-07	
90	2.965461e-09	-1.98638e-06	
91	3.005461e-09	-2.58821e-06	
92	3.045461e-09	-2.88396e-06	
93	3.085461e-09	-2.90420e-06	
94	3.125461e-09	-2.87864e-06	
95	3.165461e-09	-2.78456e-06	
96	3.205461e-09	-2.77475e-06	
97	3.245461e-09	-2.68558e-06	
98	3.285461e-09	-2.66635e-06	
99	3.325461e-09	-2.58064e-06	
100	3.365461e-09	-2.55917e-06	
101	3.405461e-09	-2.47832e-06	
102	3.445461e-09	-2.45817e-06	
103	3.485461e-09	-2.38148e-06	
104	3.525461e-09	-2.36367e-06	
105	3.565461e-09	-2.29044e-06	
106	3.605461e-09	-2.27527e-06	
107	3.645461e-09	-2.20493e-06	
108	3.685461e-09	-2.19249e-06	
109	3.725461e-09	-2.12454e-06	
110	3.765461e-09	-2.11481e-06	
111	3.805461e-09	-2.04888e-06	
112	3.845461e-09	-2.04182e-06	

Index   time            cf              
--------------------------------------------------------------------------------
113	3.885461e-09	-1.97756e-06	
114	3.925461e-09	-1.97312e-06	
115	3.965461e-09	-1.91024e-06	
116	4.005461e-09	-1.90835e-06	
117	4.045461e-09	-1.84662e-06	
118	4.085461e-09	-1.84721e-06	
119	4.125461e-09	-1.78641e-06	
120	4.165461e-09	-1.78940e-06	
121	4.205461e-09	-1.72936e-06	
122	4.245461e-09	-1.73467e-06	
123	4.285461e-09	-1.67524e-06	
124	4.325461e-09	-1.68279e-06	
125	4.365461e-09	-1.62383e-06	
126	4.405461e-09	-1.63356e-06	
127	4.445461e-09	-1.57496e-06	
128	4.485461e-09	-1.58678e-06	
129	4.525461e-09	-1.52843e-06	
130	4.565461e-09	-1.54229e-06	
131	4.605461e-09	-1.48411e-06	
132	4.645461e-09	-1.49993e-06	
133	4.685461e-09	-1.44183e-06	
134	4.725461e-09	-1.45956e-06	
135	4.765461e-09	-1.40146e-06	
136	4.805461e-09	-1.42104e-06	
137	4.845461e-09	-1.36289e-06	
138	4.885461e-09	-1.38426e-06	
139	4.925461e-09	-1.32601e-06	
140	4.965461e-09	-1.34911e-06	
141	5.005461e-09	-1.29070e-06	
142	5.045461e-09	-1.31550e-06	
143	5.085461e-09	-1.25687e-06	
144	5.125461e-09	-1.28331e-06	
145	5.165461e-09	-1.22444e-06	
146	5.205461e-09	-1.25249e-06	
147	5.245461e-09	-1.19333e-06	
148	5.285461e-09	-1.22291e-06	
149	5.325461e-09	-1.16344e-06	
150	5.365461e-09	-1.19457e-06	
151	5.405461e-09	-1.13474e-06	
152	5.445461e-09	-1.16733e-06	
153	5.485461e-09	-1.10714e-06	
154	5.525461e-09	-1.14117e-06	
155	5.565461e-09	-1.08058e-06	
156	5.605461e-09	-1.11603e-06	
157	5.645461e-09	-1.05501e-06	
158	5.685461e-09	-1.09184e-06	
159	5.725461e-09	-1.03037e-06	
160	5.765461e-09	-1.06855e-06	
161	5.805461e-09	-1.00662e-06	
162	5.845461e-09	-1.04612e-06	
163	5.885461e-09	-9.83712e-07	
164	5.925461e-09	-1.02451e-06	
165	5.965461e-09	-9.61605e-07	
166	6.005461e-09	-1.00368e-06	
167	6.045461e-09	-9.40256e-07	
168	6.085461e-09	-9.83577e-07	
169	6.125461e-09	-9.19631e-07	
170	6.165461e-09	-9.64176e-07	

Index   time            cf              
--------------------------------------------------------------------------------
171	6.205461e-09	-8.99694e-07	
172	6.245461e-09	-9.45441e-07	
173	6.285461e-09	-8.80412e-07	
174	6.325461e-09	-9.27341e-07	
175	6.365461e-09	-8.61755e-07	
176	6.405461e-09	-9.09356e-07	
177	6.445461e-09	-8.43659e-07	
178	6.485461e-09	-8.91886e-07	
179	6.525461e-09	-8.25997e-07	
180	6.565461e-09	-8.74974e-07	
181	6.605461e-09	-8.08889e-07	
182	6.645461e-09	-8.58603e-07	
183	6.685461e-09	-7.92311e-07	
184	6.725461e-09	-8.42749e-07	
185	6.765461e-09	-7.76238e-07	
186	6.805461e-09	-8.27391e-07	
187	6.845461e-09	-7.60647e-07	
188	6.885461e-09	-8.12506e-07	
189	6.925461e-09	-7.45518e-07	
190	6.965461e-09	-7.98075e-07	
191	7.005461e-09	-7.30831e-07	
192	7.045461e-09	-7.84078e-07	
193	7.085461e-09	-7.16565e-07	
194	7.125461e-09	-7.70499e-07	
195	7.165461e-09	-7.02705e-07	
196	7.205461e-09	-7.57319e-07	
197	7.245461e-09	-6.89233e-07	
198	7.285461e-09	-7.44522e-07	
199	7.325461e-09	-6.76134e-07	
200	7.365461e-09	-7.32094e-07	
201	7.405461e-09	-6.63393e-07	
202	7.445461e-09	-7.20018e-07	
203	7.485461e-09	-6.50996e-07	
204	7.525461e-09	-7.08283e-07	
205	7.565461e-09	-6.38928e-07	
206	7.605461e-09	-6.96874e-07	
207	7.645461e-09	-6.27178e-07	
208	7.685461e-09	-6.85779e-07	
209	7.725461e-09	-6.15734e-07	
210	7.765461e-09	-6.74986e-07	
211	7.805461e-09	-6.04585e-07	
212	7.845461e-09	-6.64483e-07	
213	7.885461e-09	-5.93718e-07	
214	7.925461e-09	-6.54261e-07	
215	7.965461e-09	-5.83125e-07	
216	8.005461e-09	-6.44308e-07	
217	8.045461e-09	-5.72795e-07	
218	8.085461e-09	-6.34615e-07	
219	8.125461e-09	-5.62719e-07	
220	8.165461e-09	-6.25173e-07	
221	8.205461e-09	-5.52888e-07	
222	8.245461e-09	-6.15972e-07	
223	8.285461e-09	-5.43293e-07	
224	8.325461e-09	-6.07005e-07	
225	8.365461e-09	-5.33957e-07	
226	8.405461e-09	-5.98264e-07	
227	8.445461e-09	-5.24776e-07	
228	8.485461e-09	-5.89743e-07	

Index   time            cf              
--------------------------------------------------------------------------------
229	8.525461e-09	-5.15843e-07	
230	8.565461e-09	-5.81424e-07	
231	8.605461e-09	-5.07118e-07	
232	8.645461e-09	-5.73310e-07	
233	8.685461e-09	-4.98591e-07	
234	8.725461e-09	-5.65393e-07	
235	8.765461e-09	-4.90256e-07	
236	8.805461e-09	-5.57663e-07	
237	8.845461e-09	-4.82107e-07	
238	8.885461e-09	-5.50124e-07	
239	8.925461e-09	-4.74137e-07	
240	8.965461e-09	-5.42752e-07	
241	9.005461e-09	-4.66345e-07	
242	9.045461e-09	-5.35559e-07	
243	9.085461e-09	-4.58720e-07	
244	9.125461e-09	-5.28530e-07	
245	9.165461e-09	-4.51259e-07	
246	9.205461e-09	-5.21662e-07	
247	9.245461e-09	-4.43957e-07	
248	9.285461e-09	-5.14949e-07	
249	9.325461e-09	-4.36809e-07	
250	9.365461e-09	-5.08388e-07	
251	9.405461e-09	-4.29806e-07	
252	9.445461e-09	-5.01978e-07	
253	9.485461e-09	-4.22960e-07	
254	9.525461e-09	-4.95693e-07	
255	9.565461e-09	-4.16239e-07	
256	9.605461e-09	-4.89568e-07	
257	9.645461e-09	-4.09667e-07	
258	9.685461e-09	-4.83560e-07	
259	9.725461e-09	-4.03222e-07	
260	9.765461e-09	-4.77687e-07	
261	9.805461e-09	-3.96908e-07	
262	9.845461e-09	-4.71939e-07	
263	9.885461e-09	-3.90717e-07	
264	9.925461e-09	-4.66313e-07	
265	9.965461e-09	-3.84649e-07	
266	1.000546e-08	-4.60806e-07	
267	1.004546e-08	-3.78697e-07	
268	1.008546e-08	-4.55414e-07	
269	1.012546e-08	-3.72862e-07	
270	1.016546e-08	-4.50133e-07	
271	1.020546e-08	-3.67137e-07	
272	1.024546e-08	-4.44961e-07	
273	1.028546e-08	-3.61521e-07	
274	1.032546e-08	-4.39894e-07	
275	1.036546e-08	-3.56011e-07	
276	1.040546e-08	-4.34925e-07	
277	1.044546e-08	-3.50610e-07	
278	1.048546e-08	-4.30063e-07	
279	1.052546e-08	-3.45298e-07	
280	1.056546e-08	-4.25296e-07	
281	1.060546e-08	-3.40087e-07	
282	1.064546e-08	-4.20623e-07	
283	1.068546e-08	-3.34972e-07	
284	1.072546e-08	-4.16042e-07	
285	1.076546e-08	-3.29949e-07	
286	1.080546e-08	-4.11550e-07	

Index   time            cf              
--------------------------------------------------------------------------------
287	1.084546e-08	-3.25016e-07	
288	1.088546e-08	-4.07144e-07	
289	1.092546e-08	-3.20170e-07	
290	1.096546e-08	-4.02824e-07	
291	1.100546e-08	-3.15411e-07	
292	1.104546e-08	-3.98585e-07	
293	1.108546e-08	-3.10734e-07	
294	1.112546e-08	-3.94428e-07	
295	1.116546e-08	-3.06139e-07	
296	1.120546e-08	-3.90347e-07	
297	1.124546e-08	-3.01622e-07	
298	1.128546e-08	-3.86344e-07	
299	1.132546e-08	-2.97185e-07	
300	1.136546e-08	-3.82414e-07	
301	1.140546e-08	-2.92820e-07	
302	1.144546e-08	-3.78556e-07	
303	1.148546e-08	-2.88532e-07	
304	1.152546e-08	-3.74769e-07	
305	1.156546e-08	-2.84313e-07	
306	1.160546e-08	-3.71052e-07	
307	1.164546e-08	-2.80166e-07	
308	1.168546e-08	-3.67400e-07	
309	1.172546e-08	-2.76086e-07	
310	1.176546e-08	-3.63815e-07	
311	1.180546e-08	-2.72074e-07	
312	1.184546e-08	-3.60292e-07	
313	1.188546e-08	-2.68126e-07	
314	1.192546e-08	-3.56833e-07	
315	1.196546e-08	-2.64243e-07	
316	1.200546e-08	-3.53434e-07	
317	1.204546e-08	-2.60421e-07	
318	1.208546e-08	-3.50094e-07	
319	1.212546e-08	-2.56663e-07	
320	1.216546e-08	-3.46812e-07	
321	1.220546e-08	-2.52959e-07	
322	1.224546e-08	-3.43587e-07	
323	1.228546e-08	-2.49318e-07	
324	1.232546e-08	-3.40417e-07	
325	1.236546e-08	-2.45731e-07	
326	1.240546e-08	-3.37301e-07	
327	1.244546e-08	-2.42201e-07	
328	1.248546e-08	-3.34237e-07	
329	1.252546e-08	-2.38724e-07	
330	1.256546e-08	-3.31225e-07	
331	1.260546e-08	-2.35303e-07	
332	1.264546e-08	-3.28262e-07	
333	1.268546e-08	-2.31931e-07	
334	1.272546e-08	-3.25349e-07	
335	1.276546e-08	-2.28612e-07	
336	1.280546e-08	-3.22484e-07	
337	1.284546e-08	-2.25341e-07	
338	1.288546e-08	-3.19666e-07	
339	1.292546e-08	-2.22121e-07	
340	1.296546e-08	-3.16894e-07	
341	1.300546e-08	-2.18947e-07	
342	1.304546e-08	-3.14166e-07	
343	1.308546e-08	-2.15821e-07	
344	1.312546e-08	-3.11483e-07	

Index   time            cf              
--------------------------------------------------------------------------------
345	1.316546e-08	-2.12739e-07	
346	1.320546e-08	-3.08842e-07	
347	1.324546e-08	-2.09704e-07	
348	1.328546e-08	-3.06243e-07	
349	1.332546e-08	-2.06711e-07	
350	1.336546e-08	-3.03685e-07	
351	1.340546e-08	-2.03763e-07	
352	1.344546e-08	-3.01167e-07	
353	1.348546e-08	-2.00855e-07	
354	1.352546e-08	-2.98688e-07	
355	1.356546e-08	-1.97990e-07	
356	1.360546e-08	-2.96248e-07	
357	1.364546e-08	-1.95164e-07	
358	1.368546e-08	-2.93846e-07	
359	1.372546e-08	-1.92379e-07	
360	1.376546e-08	-2.91480e-07	
361	1.380546e-08	-1.89632e-07	
362	1.384546e-08	-2.89150e-07	
363	1.388546e-08	-1.86924e-07	
364	1.392546e-08	-2.86856e-07	
365	1.396546e-08	-1.84252e-07	
366	1.400546e-08	-2.84596e-07	
367	1.404546e-08	-1.81619e-07	
368	1.408546e-08	-2.82370e-07	
369	1.412546e-08	-1.79019e-07	
370	1.416546e-08	-2.80177e-07	
371	1.420546e-08	-1.76457e-07	
372	1.424546e-08	-2.78016e-07	
373	1.428546e-08	-1.73928e-07	
374	1.432546e-08	-2.75888e-07	
375	1.436546e-08	-1.71434e-07	
376	1.440546e-08	-2.73790e-07	
377	1.444546e-08	-1.68972e-07	
378	1.448546e-08	-2.71723e-07	
379	1.452546e-08	-1.66544e-07	
380	1.456546e-08	-2.69686e-07	
381	1.460546e-08	-1.64146e-07	
382	1.464546e-08	-2.67678e-07	
383	1.468546e-08	-1.61782e-07	
384	1.472546e-08	-2.65699e-07	
385	1.476546e-08	-1.59447e-07	
386	1.480546e-08	-2.63748e-07	
387	1.484546e-08	-1.57144e-07	
388	1.488546e-08	-2.61825e-07	
389	1.492546e-08	-1.54869e-07	
390	1.496546e-08	-2.59929e-07	
391	1.500546e-08	-1.52625e-07	
392	1.504546e-08	-2.58059e-07	
393	1.508546e-08	-1.50409e-07	
394	1.512546e-08	-2.56216e-07	
395	1.516546e-08	-1.48221e-07	
396	1.520546e-08	-2.54397e-07	
397	1.524546e-08	-1.46061e-07	
398	1.528546e-08	-2.52604e-07	
399	1.532546e-08	-1.43929e-07	
400	1.536546e-08	-2.50836e-07	
401	1.540546e-08	-1.41823e-07	
402	1.544546e-08	-2.49091e-07	

Index   time            cf              
--------------------------------------------------------------------------------
403	1.548546e-08	-1.39743e-07	
404	1.552546e-08	-2.47370e-07	
405	1.556546e-08	-1.37690e-07	
406	1.560546e-08	-2.45673e-07	
407	1.564546e-08	-1.35661e-07	
408	1.568546e-08	-2.43998e-07	
409	1.572546e-08	-1.33658e-07	
410	1.576546e-08	-2.42346e-07	
411	1.580546e-08	-1.31679e-07	
412	1.584546e-08	-2.40715e-07	
413	1.588546e-08	-1.29725e-07	
414	1.592546e-08	-2.39106e-07	
415	1.596546e-08	-1.27794e-07	
416	1.600546e-08	-2.37519e-07	
417	1.604546e-08	-1.25887e-07	
418	1.608546e-08	-2.35951e-07	
419	1.612546e-08	-1.24002e-07	
420	1.616546e-08	-2.34405e-07	
421	1.620546e-08	-1.22140e-07	
422	1.624546e-08	-2.32878e-07	
423	1.628546e-08	-1.20300e-07	
424	1.632546e-08	-2.31371e-07	
425	1.636546e-08	-1.18483e-07	
426	1.640546e-08	-2.29883e-07	
427	1.644546e-08	-1.16686e-07	
428	1.648546e-08	-2.28415e-07	
429	1.652546e-08	-1.14911e-07	
430	1.656546e-08	-2.26965e-07	
431	1.660546e-08	-1.13157e-07	
432	1.664546e-08	-2.25533e-07	
433	1.668546e-08	-1.11423e-07	
434	1.672546e-08	-2.24119e-07	
435	1.676546e-08	-1.09709e-07	
436	1.680546e-08	-2.22722e-07	
437	1.684546e-08	-1.08015e-07	
438	1.688546e-08	-2.21344e-07	
439	1.692546e-08	-1.06341e-07	
440	1.696546e-08	-2.19982e-07	
441	1.700546e-08	-1.04685e-07	
442	1.704546e-08	-2.18637e-07	
443	1.708546e-08	-1.03049e-07	
444	1.712546e-08	-2.17308e-07	
445	1.716546e-08	-1.01431e-07	
446	1.720546e-08	-2.15995e-07	
447	1.724546e-08	-9.98321e-08	
448	1.728546e-08	-2.14699e-07	
449	1.732546e-08	-9.82509e-08	
450	1.736546e-08	-2.13418e-07	
451	1.740546e-08	-9.66874e-08	
452	1.744546e-08	-2.12152e-07	
453	1.748546e-08	-9.51415e-08	
454	1.752546e-08	-2.10902e-07	
455	1.756546e-08	-9.36128e-08	
456	1.760546e-08	-2.09666e-07	
457	1.764546e-08	-9.21011e-08	
458	1.768546e-08	-2.08445e-07	
459	1.772546e-08	-9.06060e-08	
460	1.776546e-08	-2.07238e-07	

Index   time            cf              
--------------------------------------------------------------------------------
461	1.780546e-08	-8.91279e-08	
462	1.784546e-08	-2.06046e-07	
463	1.788546e-08	-8.76654e-08	
464	1.792546e-08	-2.04867e-07	
465	1.796546e-08	-8.62195e-08	
466	1.800546e-08	-2.03702e-07	
467	1.804546e-08	-8.47888e-08	
468	1.808546e-08	-2.02551e-07	
469	1.812546e-08	-8.33742e-08	
470	1.816546e-08	-2.01412e-07	
471	1.820546e-08	-8.19744e-08	
472	1.824546e-08	-2.00287e-07	
473	1.828546e-08	-8.05902e-08	
474	1.832546e-08	-1.99174e-07	
475	1.836546e-08	-7.92204e-08	
476	1.840546e-08	-1.98075e-07	
477	1.844546e-08	-7.78656e-08	
478	1.848546e-08	-1.96987e-07	
479	1.852546e-08	-7.65253e-08	
480	1.856546e-08	-1.95911e-07	
481	1.860546e-08	-7.51991e-08	
482	1.864546e-08	-1.94848e-07	
483	1.868546e-08	-7.38870e-08	
484	1.872546e-08	-1.93796e-07	
485	1.876546e-08	-7.25888e-08	
486	1.880546e-08	-1.92756e-07	
487	1.884546e-08	-7.13043e-08	
488	1.888546e-08	-1.91728e-07	
489	1.892546e-08	-7.00332e-08	
490	1.896546e-08	-1.90711e-07	
491	1.900546e-08	-6.87754e-08	
492	1.904546e-08	-1.89704e-07	
493	1.908546e-08	-6.75308e-08	
494	1.912546e-08	-1.88709e-07	
495	1.916546e-08	-6.62990e-08	
496	1.920546e-08	-1.87724e-07	
497	1.924546e-08	-6.50801e-08	
498	1.928546e-08	-1.86750e-07	
499	1.932546e-08	-6.38737e-08	
500	1.936546e-08	-1.85787e-07	
501	1.940546e-08	-6.26797e-08	
502	1.944546e-08	-1.84833e-07	
503	1.948546e-08	-6.14980e-08	
504	1.952546e-08	-1.83890e-07	
505	1.956546e-08	-6.03284e-08	
506	1.960546e-08	-1.82957e-07	
507	1.964546e-08	-5.91707e-08	
508	1.968546e-08	-1.82033e-07	
509	1.972546e-08	-5.80247e-08	
510	1.976546e-08	-1.81119e-07	
511	1.980546e-08	-5.68904e-08	
512	1.984546e-08	-1.80215e-07	
513	1.988546e-08	-5.57675e-08	
514	1.992546e-08	-1.79319e-07	
515	1.996546e-08	-5.46560e-08	
516	2.000546e-08	-1.78434e-07	
517	2.004546e-08	-5.35556e-08	
518	2.008546e-08	-1.77557e-07	

Index   time            cf              
--------------------------------------------------------------------------------
519	2.012546e-08	-5.24662e-08	
520	2.016546e-08	-1.76689e-07	
521	2.020546e-08	-5.13877e-08	
522	2.024546e-08	-1.75830e-07	
523	2.028546e-08	-5.03199e-08	
524	2.032546e-08	-1.74979e-07	
525	2.036546e-08	-4.92628e-08	
526	2.040546e-08	-1.74137e-07	
527	2.044546e-08	-4.82161e-08	
528	2.048546e-08	-1.73304e-07	
529	2.052546e-08	-4.71797e-08	
530	2.056546e-08	-1.72479e-07	
531	2.060546e-08	-4.61535e-08	
532	2.064546e-08	-1.71662e-07	
533	2.068546e-08	-4.51374e-08	
534	2.072546e-08	-1.70853e-07	
535	2.076546e-08	-4.41313e-08	
536	2.080546e-08	-1.70052e-07	
537	2.084546e-08	-4.31350e-08	
538	2.088546e-08	-1.69259e-07	
539	2.092546e-08	-4.21483e-08	
540	2.096546e-08	-1.68473e-07	
541	2.100546e-08	-4.11713e-08	
542	2.104546e-08	-1.67695e-07	
543	2.108546e-08	-4.02037e-08	
544	2.112546e-08	-1.66925e-07	
545	2.116546e-08	-3.92455e-08	
546	2.120546e-08	-1.66162e-07	
547	2.124546e-08	-3.82966e-08	
548	2.128546e-08	-1.65406e-07	
549	2.132546e-08	-3.73567e-08	
550	2.136546e-08	-1.64658e-07	
551	2.140546e-08	-3.64259e-08	
552	2.144546e-08	-1.63917e-07	
553	2.148546e-08	-3.55040e-08	
554	2.152546e-08	-1.63182e-07	
555	2.156546e-08	-3.45908e-08	
556	2.160546e-08	-1.62455e-07	
557	2.164546e-08	-3.36863e-08	
558	2.168546e-08	-1.61734e-07	
559	2.172546e-08	-3.27905e-08	
560	2.176546e-08	-1.61020e-07	
561	2.180546e-08	-3.19031e-08	
562	2.184546e-08	-1.60312e-07	
563	2.188546e-08	-3.10241e-08	
564	2.192546e-08	-1.59611e-07	
565	2.196546e-08	-3.01533e-08	
566	2.200546e-08	-1.58917e-07	
567	2.204546e-08	-2.92908e-08	
568	2.208546e-08	-1.58229e-07	
569	2.212546e-08	-2.84364e-08	
570	2.216546e-08	-1.57547e-07	
571	2.220546e-08	-2.75899e-08	
572	2.224546e-08	-1.56871e-07	
573	2.228546e-08	-2.67514e-08	
574	2.232546e-08	-1.56201e-07	
575	2.236546e-08	-2.59207e-08	
576	2.240546e-08	-1.55537e-07	

Index   time            cf              
--------------------------------------------------------------------------------
577	2.244546e-08	-2.50977e-08	
578	2.248546e-08	-1.54880e-07	
579	2.252546e-08	-2.42823e-08	
580	2.256546e-08	-1.54228e-07	
581	2.260546e-08	-2.34745e-08	
582	2.264546e-08	-1.53581e-07	
583	2.268546e-08	-2.26741e-08	
584	2.272546e-08	-1.52941e-07	
585	2.276546e-08	-2.18809e-08	
586	2.280546e-08	-1.52306e-07	
587	2.284546e-08	-2.10957e-08	
588	2.288546e-08	-1.51677e-07	
589	2.292546e-08	-2.03168e-08	
590	2.296546e-08	-1.51052e-07	
591	2.300546e-08	-1.95459e-08	
592	2.304546e-08	-1.50435e-07	
593	2.308546e-08	-1.87812e-08	
594	2.312546e-08	-1.49821e-07	
595	2.316546e-08	-1.80243e-08	
596	2.320546e-08	-1.49213e-07	
597	2.324546e-08	-1.72734e-08	
598	2.328546e-08	-1.48610e-07	
599	2.332546e-08	-1.65300e-08	
600	2.336546e-08	-1.48013e-07	
601	2.340546e-08	-1.57932e-08	
602	2.344546e-08	-1.47420e-07	
603	2.348546e-08	-1.50631e-08	
604	2.352546e-08	-1.46832e-07	
605	2.356546e-08	-1.43395e-08	
606	2.360546e-08	-1.46249e-07	
607	2.364546e-08	-1.36225e-08	
608	2.368546e-08	-1.45671e-07	
609	2.372546e-08	-1.29119e-08	
610	2.376546e-08	-1.45098e-07	
611	2.380546e-08	-1.22077e-08	
612	2.384546e-08	-1.44530e-07	
613	2.388546e-08	-1.15098e-08	
614	2.392546e-08	-1.43966e-07	
615	2.396546e-08	-1.08182e-08	
616	2.400546e-08	-1.43407e-07	
617	2.404546e-08	-1.01328e-08	
618	2.408546e-08	-1.42852e-07	
619	2.412546e-08	-9.45346e-09	
620	2.416546e-08	-1.42302e-07	
621	2.420546e-08	-8.78026e-09	
622	2.424546e-08	-1.41757e-07	
623	2.428546e-08	-8.11297e-09	
624	2.432546e-08	-1.41215e-07	
625	2.436546e-08	-7.45163e-09	
626	2.440546e-08	-1.40678e-07	
627	2.444546e-08	-6.79618e-09	
628	2.448546e-08	-1.40146e-07	
629	2.452546e-08	-6.14648e-09	
630	2.456546e-08	-1.39617e-07	
631	2.460546e-08	-5.50261e-09	
632	2.464546e-08	-1.39093e-07	
633	2.468546e-08	-4.86432e-09	
634	2.472546e-08	-1.38573e-07	

Index   time            cf              
--------------------------------------------------------------------------------
635	2.476546e-08	-4.23172e-09	
636	2.480546e-08	-1.38056e-07	
637	2.484546e-08	-3.60467e-09	
638	2.488546e-08	-1.37544e-07	
639	2.492546e-08	-2.98313e-09	
640	2.496546e-08	-1.37036e-07	
641	2.500546e-08	-2.36697e-09	
642	2.504546e-08	-1.36532e-07	
643	2.508546e-08	-1.75636e-09	
644	2.512546e-08	-1.36031e-07	
645	2.516546e-08	-1.15100e-09	
646	2.520546e-08	-1.35535e-07	
647	2.524546e-08	-5.50926e-10	
648	2.528546e-08	-1.35042e-07	
649	2.532546e-08	4.390997e-11	
650	2.536546e-08	-1.34553e-07	
651	2.540546e-08	6.335676e-10	
652	2.544546e-08	-1.34067e-07	
653	2.548546e-08	1.218095e-09	
654	2.552546e-08	-1.33586e-07	
655	2.556546e-08	1.797545e-09	
656	2.560546e-08	-1.33108e-07	
657	2.564546e-08	2.371970e-09	
658	2.568546e-08	-1.32633e-07	
659	2.572546e-08	2.941421e-09	
660	2.576546e-08	-1.32162e-07	
661	2.580546e-08	3.505943e-09	
662	2.584546e-08	-1.31694e-07	
663	2.588546e-08	4.065587e-09	
664	2.592546e-08	-1.31230e-07	
665	2.596546e-08	4.620437e-09	
666	2.600546e-08	-1.30769e-07	
667	2.604546e-08	5.170441e-09	
668	2.608546e-08	-1.30311e-07	
669	2.612546e-08	5.715697e-09	
670	2.616546e-08	-1.29857e-07	
671	2.620546e-08	6.256282e-09	
672	2.624546e-08	-1.29406e-07	
673	2.628546e-08	6.792230e-09	
674	2.632546e-08	-1.28959e-07	
675	2.636546e-08	7.323581e-09	
676	2.640546e-08	-1.28514e-07	
677	2.644546e-08	7.850376e-09	
678	2.648546e-08	-1.28073e-07	
679	2.652546e-08	8.372651e-09	
680	2.656546e-08	-1.27634e-07	
681	2.660546e-08	8.890448e-09	
682	2.664546e-08	-1.27199e-07	
683	2.668546e-08	9.403821e-09	
684	2.672546e-08	-1.26767e-07	
685	2.676546e-08	9.912814e-09	
686	2.680546e-08	-1.26338e-07	
687	2.684546e-08	1.041747e-08	
688	2.688546e-08	-1.25912e-07	
689	2.692546e-08	1.091781e-08	
690	2.696546e-08	-1.25488e-07	
691	2.700546e-08	1.141394e-08	
692	2.704546e-08	-1.25068e-07	

Index   time            cf              
--------------------------------------------------------------------------------
693	2.708546e-08	1.190599e-08	
694	2.712546e-08	-1.24650e-07	
695	2.716546e-08	1.239352e-08	
696	2.720546e-08	-1.24236e-07	
697	2.724546e-08	1.287711e-08	
698	2.728546e-08	-1.23824e-07	
699	2.732546e-08	1.335661e-08	
700	2.736546e-08	-1.23415e-07	
701	2.740546e-08	1.383204e-08	
702	2.744546e-08	-1.23009e-07	
703	2.748546e-08	1.430345e-08	
704	2.752546e-08	-1.22605e-07	
705	2.756546e-08	1.477087e-08	
706	2.760546e-08	-1.22204e-07	
707	2.764546e-08	1.523435e-08	
708	2.768546e-08	-1.21806e-07	
709	2.772546e-08	1.569392e-08	
710	2.776546e-08	-1.21410e-07	
711	2.780546e-08	1.614961e-08	
712	2.784546e-08	-1.21017e-07	
713	2.788546e-08	1.660147e-08	
714	2.792546e-08	-1.20627e-07	
715	2.796546e-08	1.704952e-08	
716	2.800546e-08	-1.20239e-07	
717	2.804546e-08	1.749378e-08	
718	2.808546e-08	-1.19854e-07	
719	2.812546e-08	1.793446e-08	
720	2.816546e-08	-1.19471e-07	
721	2.820546e-08	1.837132e-08	
722	2.824546e-08	-1.19090e-07	
723	2.828546e-08	1.880453e-08	
724	2.832546e-08	-1.18713e-07	
725	2.836546e-08	1.923396e-08	
726	2.840546e-08	-1.18337e-07	
727	2.844546e-08	1.965989e-08	
728	2.848546e-08	-1.17964e-07	
729	2.852546e-08	2.008227e-08	
730	2.856546e-08	-1.17593e-07	
731	2.860546e-08	2.050141e-08	
732	2.864546e-08	-1.17224e-07	
733	2.868546e-08	2.091612e-08	
734	2.872546e-08	-1.16858e-07	
735	2.876546e-08	2.132862e-08	
736	2.880546e-08	-1.16494e-07	
737	2.884546e-08	2.173672e-08	
738	2.888546e-08	-1.16132e-07	
739	2.892546e-08	2.214174e-08	
740	2.896546e-08	-1.15773e-07	
741	2.900546e-08	2.254338e-08	
742	2.904546e-08	-1.15415e-07	
743	2.908546e-08	2.294166e-08	
744	2.912546e-08	-1.15060e-07	
745	2.916546e-08	2.333662e-08	
746	2.920546e-08	-1.14707e-07	
747	2.924546e-08	2.372829e-08	
748	2.928546e-08	-1.14357e-07	
749	2.932546e-08	2.411670e-08	
750	2.936546e-08	-1.14008e-07	

Index   time            cf              
--------------------------------------------------------------------------------
751	2.940546e-08	2.450187e-08	
752	2.944546e-08	-1.13661e-07	
753	2.948546e-08	2.488383e-08	
754	2.952546e-08	-1.13317e-07	
755	2.956546e-08	2.526262e-08	
756	2.960546e-08	-1.12974e-07	
757	2.964546e-08	2.563825e-08	
758	2.968546e-08	-1.12634e-07	
759	2.972546e-08	2.601102e-08	
760	2.976546e-08	-1.12296e-07	
761	2.980546e-08	2.638022e-08	
762	2.984546e-08	-1.11959e-07	
763	2.988546e-08	2.674656e-08	
764	2.992546e-08	-1.11624e-07	
765	2.996546e-08	2.710988e-08	
766	3.000546e-08	-1.11292e-07	
767	3.004546e-08	2.747018e-08	
768	3.008546e-08	-1.10961e-07	
769	3.012546e-08	2.782748e-08	
770	3.016546e-08	-1.10633e-07	
771	3.020546e-08	2.818182e-08	
772	3.024546e-08	-1.10306e-07	
773	3.028546e-08	2.853322e-08	
774	3.032546e-08	-1.09981e-07	
775	3.036546e-08	2.888171e-08	
776	3.040546e-08	-1.09658e-07	
777	3.044546e-08	2.922740e-08	
778	3.048546e-08	-1.09336e-07	
779	3.052546e-08	2.956995e-08	
780	3.056546e-08	-1.09017e-07	
781	3.060546e-08	2.991000e-08	
782	3.064546e-08	-1.08699e-07	
783	3.068546e-08	3.024690e-08	
784	3.072546e-08	-1.08383e-07	
785	3.076546e-08	3.058134e-08	
786	3.080546e-08	-1.08069e-07	
787	3.084546e-08	3.091277e-08	
788	3.088546e-08	-1.07756e-07	
789	3.092546e-08	3.124151e-08	
790	3.096546e-08	-1.07446e-07	
791	3.100546e-08	3.156754e-08	
792	3.104546e-08	-1.07137e-07	
793	3.108546e-08	3.189087e-08	
794	3.112546e-08	-1.06829e-07	
795	3.116546e-08	3.221151e-08	
796	3.120546e-08	-1.06524e-07	
797	3.124546e-08	3.252950e-08	
798	3.128546e-08	-1.06220e-07	
799	3.132546e-08	3.284486e-08	
800	3.136546e-08	-1.05917e-07	
801	3.140546e-08	3.315760e-08	
802	3.144546e-08	-1.05617e-07	
803	3.148546e-08	3.346774e-08	
804	3.152546e-08	-1.05317e-07	
805	3.156546e-08	3.377532e-08	
806	3.160546e-08	-1.05020e-07	
807	3.164546e-08	3.408035e-08	
808	3.168546e-08	-1.04724e-07	

Index   time            cf              
--------------------------------------------------------------------------------
809	3.172546e-08	3.438286e-08	
810	3.176546e-08	-1.04429e-07	
811	3.180546e-08	3.468284e-08	
812	3.184546e-08	-1.04136e-07	
813	3.188546e-08	3.498036e-08	
814	3.192546e-08	-1.03845e-07	
815	3.196546e-08	3.527541e-08	
816	3.200546e-08	-1.03555e-07	
817	3.204546e-08	3.556801e-08	
818	3.208546e-08	-1.03267e-07	
819	3.212546e-08	3.585818e-08	
820	3.216546e-08	-1.02980e-07	
821	3.220546e-08	3.614595e-08	
822	3.224546e-08	-1.02695e-07	
823	3.228546e-08	3.643133e-08	
824	3.232546e-08	-1.02411e-07	
825	3.236546e-08	3.671434e-08	
826	3.240546e-08	-1.02128e-07	
827	3.244546e-08	3.699501e-08	
828	3.248546e-08	-1.01847e-07	
829	3.252546e-08	3.727332e-08	
830	3.256546e-08	-1.01567e-07	
831	3.260546e-08	3.754934e-08	
832	3.264546e-08	-1.01289e-07	
833	3.268546e-08	3.782306e-08	
834	3.272546e-08	-1.01012e-07	
835	3.276546e-08	3.809450e-08	
836	3.280546e-08	-1.00737e-07	
837	3.284546e-08	3.836369e-08	
838	3.288546e-08	-1.00463e-07	
839	3.292546e-08	3.863063e-08	
840	3.296546e-08	-1.00190e-07	
841	3.300546e-08	3.889536e-08	
842	3.304546e-08	-9.99186e-08	
843	3.308546e-08	3.915789e-08	
844	3.312546e-08	-9.96484e-08	
845	3.316546e-08	3.941820e-08	
846	3.320546e-08	-9.93797e-08	
847	3.324546e-08	3.967639e-08	
848	3.328546e-08	-9.91122e-08	
849	3.332546e-08	3.993240e-08	
850	3.336546e-08	-9.88460e-08	
851	3.340546e-08	4.018628e-08	
852	3.344546e-08	-9.85810e-08	
853	3.348546e-08	4.043805e-08	
854	3.352546e-08	-9.83174e-08	
855	3.356546e-08	4.068772e-08	
856	3.360546e-08	-9.80550e-08	
857	3.364546e-08	4.093530e-08	
858	3.368546e-08	-9.77938e-08	
859	3.372546e-08	4.118081e-08	
860	3.376546e-08	-9.75339e-08	
861	3.380546e-08	4.142426e-08	
862	3.384546e-08	-9.72752e-08	
863	3.388546e-08	4.166568e-08	
864	3.392546e-08	-9.70176e-08	
865	3.396546e-08	4.190508e-08	
866	3.400546e-08	-9.67613e-08	

Index   time            cf              
--------------------------------------------------------------------------------
867	3.404546e-08	4.214247e-08	
868	3.408546e-08	-9.65062e-08	
869	3.412546e-08	4.237787e-08	
870	3.416546e-08	-9.62523e-08	
871	3.420546e-08	4.261129e-08	
872	3.424546e-08	-9.59995e-08	
873	3.428546e-08	4.284276e-08	
874	3.432546e-08	-9.57479e-08	
875	3.436546e-08	4.307228e-08	
876	3.440546e-08	-9.54965e-08	
877	3.444546e-08	4.329885e-08	
878	3.448546e-08	-9.52488e-08	
879	3.452546e-08	4.352644e-08	
880	3.456546e-08	-9.49989e-08	
881	3.460546e-08	4.374837e-08	
882	3.464546e-08	-9.47535e-08	
883	3.468546e-08	4.397211e-08	
884	3.472546e-08	-9.45059e-08	
885	3.476546e-08	4.419030e-08	
886	3.480546e-08	-9.42626e-08	
887	3.484546e-08	4.441030e-08	
888	3.488546e-08	-9.40172e-08	
889	3.492546e-08	4.462479e-08	
890	3.496546e-08	-9.37761e-08	
891	3.500546e-08	4.484111e-08	
892	3.504546e-08	-9.35328e-08	
893	3.508546e-08	4.505196e-08	
894	3.512546e-08	-9.32938e-08	
895	3.516546e-08	4.526466e-08	
896	3.520546e-08	-9.30526e-08	
897	3.524546e-08	4.547193e-08	
898	3.528546e-08	-9.28157e-08	
899	3.532546e-08	4.568105e-08	
900	3.536546e-08	-9.25766e-08	
901	3.540546e-08	4.588479e-08	
902	3.544546e-08	-9.23418e-08	
903	3.548546e-08	4.609049e-08	
904	3.552546e-08	-9.21048e-08	
905	3.556546e-08	4.629073e-08	
906	3.560546e-08	-9.18720e-08	
907	3.564546e-08	4.649291e-08	
908	3.568546e-08	-9.16369e-08	
909	3.572546e-08	4.668978e-08	
910	3.576546e-08	-9.14061e-08	
911	3.580546e-08	4.688855e-08	
912	3.584546e-08	-9.11730e-08	
913	3.588546e-08	4.708205e-08	
914	3.592546e-08	-9.09442e-08	
915	3.596546e-08	4.727746e-08	
916	3.600546e-08	-9.07131e-08	
917	3.604546e-08	4.746763e-08	
918	3.608546e-08	-9.04861e-08	
919	3.612546e-08	4.765972e-08	
920	3.616546e-08	-9.02567e-08	
921	3.620546e-08	4.784661e-08	
922	3.624546e-08	-9.00310e-08	
923	3.628546e-08	4.803448e-08	
924	3.632546e-08	-8.98052e-08	

Index   time            cf              
--------------------------------------------------------------------------------
925	3.636546e-08	4.821998e-08	
926	3.640546e-08	-8.95804e-08	
927	3.644546e-08	4.840384e-08	
928	3.648546e-08	-8.93565e-08	
929	3.652546e-08	4.858610e-08	
930	3.656546e-08	-8.91335e-08	
931	3.660546e-08	4.876679e-08	
932	3.664546e-08	-8.89115e-08	
933	3.668546e-08	4.894592e-08	
934	3.672546e-08	-8.86903e-08	
935	3.676546e-08	4.912349e-08	
936	3.680546e-08	-8.84700e-08	
937	3.684546e-08	4.929929e-08	
938	3.688546e-08	-8.82505e-08	
939	3.692546e-08	4.947399e-08	
940	3.696546e-08	-8.80320e-08	
941	3.700546e-08	4.964699e-08	
942	3.704546e-08	-8.78143e-08	
943	3.708546e-08	4.981847e-08	
944	3.712546e-08	-8.75974e-08	
945	3.716546e-08	4.998844e-08	
946	3.720546e-08	-8.73815e-08	
947	3.724546e-08	5.015694e-08	
948	3.728546e-08	-8.71663e-08	
949	3.732546e-08	5.032395e-08	
950	3.736546e-08	-8.69520e-08	
951	3.740546e-08	5.048951e-08	
952	3.744546e-08	-8.67385e-08	
953	3.748546e-08	5.065361e-08	
954	3.752546e-08	-8.65259e-08	
955	3.756546e-08	5.081626e-08	
956	3.760546e-08	-8.63141e-08	
957	3.764546e-08	5.097747e-08	
958	3.768546e-08	-8.61030e-08	
959	3.772546e-08	5.113724e-08	
960	3.776546e-08	-8.58928e-08	
961	3.780546e-08	5.129560e-08	
962	3.784546e-08	-8.56834e-08	
963	3.788546e-08	5.145256e-08	
964	3.792546e-08	-8.54747e-08	
965	3.796546e-08	5.160813e-08	
966	3.800546e-08	-8.52669e-08	
967	3.804546e-08	5.176232e-08	
968	3.808546e-08	-8.50598e-08	
969	3.812546e-08	5.191513e-08	
970	3.816546e-08	-8.48535e-08	
971	3.820546e-08	5.206661e-08	
972	3.824546e-08	-8.46480e-08	
973	3.828546e-08	5.221666e-08	
974	3.832546e-08	-8.44432e-08	
975	3.836546e-08	5.236547e-08	
976	3.840546e-08	-8.42392e-08	
977	3.844546e-08	5.251287e-08	
978	3.848546e-08	-8.40359e-08	
979	3.852546e-08	5.265897e-08	
980	3.856546e-08	-8.38334e-08	
981	3.860546e-08	5.280376e-08	
982	3.864546e-08	-8.36316e-08	

Index   time            cf              
--------------------------------------------------------------------------------
983	3.868546e-08	5.294724e-08	
984	3.872546e-08	-8.34306e-08	
985	3.876546e-08	5.308954e-08	
986	3.880546e-08	-8.32304e-08	
987	3.884546e-08	5.323031e-08	
988	3.888546e-08	-8.30310e-08	
989	3.892546e-08	5.337039e-08	
990	3.896546e-08	-8.28318e-08	
991	3.900546e-08	5.350823e-08	
992	3.904546e-08	-8.26338e-08	
993	3.908546e-08	5.364527e-08	
994	3.912546e-08	-8.24360e-08	
995	3.916546e-08	5.378129e-08	
996	3.920546e-08	-8.22400e-08	
997	3.924546e-08	5.391630e-08	
998	3.928546e-08	-8.20434e-08	
999	3.932546e-08	5.404912e-08	
1000	3.936546e-08	-8.18482e-08	
1001	3.940546e-08	5.418143e-08	
1002	3.944546e-08	-8.16535e-08	
1003	3.948546e-08	5.431235e-08	
1004	3.952546e-08	-8.14594e-08	
1005	3.956546e-08	5.444224e-08	
1006	3.960546e-08	-8.12661e-08	
1007	3.964546e-08	5.457022e-08	
1008	3.968546e-08	-8.10737e-08	
1009	3.972546e-08	5.469831e-08	
1010	3.976546e-08	-8.08816e-08	
1011	3.980546e-08	5.482430e-08	
1012	3.984546e-08	-8.06903e-08	
1013	3.988546e-08	5.494880e-08	
1014	3.992546e-08	-8.04996e-08	
1015	3.996546e-08	5.507299e-08	
1016	4.000546e-08	-8.03094e-08	
1017	4.004546e-08	5.519548e-08	
1018	4.008546e-08	-8.01204e-08	
1019	4.012546e-08	5.531712e-08	
1020	4.016546e-08	-7.99316e-08	
1021	4.020546e-08	5.543751e-08	
1022	4.024546e-08	-7.97432e-08	
1023	4.028546e-08	5.555654e-08	
1024	4.032546e-08	-7.95561e-08	
1025	4.036546e-08	5.567480e-08	
1026	4.040546e-08	-7.93693e-08	
1027	4.044546e-08	5.579184e-08	
1028	4.048546e-08	-7.91828e-08	
1029	4.052546e-08	5.590753e-08	
1030	4.056546e-08	-7.89976e-08	
1031	4.060546e-08	5.602246e-08	
1032	4.064546e-08	-7.88126e-08	
1033	4.068546e-08	5.613619e-08	
1034	4.072546e-08	-7.86280e-08	
1035	4.076546e-08	5.624859e-08	
1036	4.080546e-08	-7.84446e-08	
1037	4.084546e-08	5.636026e-08	
1038	4.088546e-08	-7.82615e-08	
1039	4.092546e-08	5.647076e-08	
1040	4.096546e-08	-7.80786e-08	

Index   time            cf              
--------------------------------------------------------------------------------
1041	4.100546e-08	5.657994e-08	
1042	4.104546e-08	-7.78971e-08	
1043	4.108546e-08	5.668853e-08	
1044	4.112546e-08	-7.77158e-08	
1045	4.116546e-08	5.679572e-08	
1046	4.120546e-08	-7.75345e-08	
1047	4.124546e-08	5.690161e-08	
1048	4.128546e-08	-7.73550e-08	
1049	4.132546e-08	5.700756e-08	
1050	4.136546e-08	-7.71749e-08	
1051	4.140546e-08	5.711095e-08	
1052	4.144546e-08	-7.69962e-08	
1053	4.148546e-08	5.721455e-08	
1054	4.152546e-08	-7.68176e-08	
1055	4.156546e-08	5.731650e-08	
1056	4.160546e-08	-7.66400e-08	
1057	4.164546e-08	5.741777e-08	
1058	4.168546e-08	-7.64622e-08	
1059	4.172546e-08	5.751746e-08	
1060	4.176546e-08	-7.62860e-08	
1061	4.180546e-08	5.761731e-08	
1062	4.184546e-08	-7.61097e-08	
1063	4.188546e-08	5.771515e-08	
1064	4.192546e-08	-7.59337e-08	
1065	4.196546e-08	5.781169e-08	
1066	4.200546e-08	-7.57590e-08	
1067	4.204546e-08	5.790885e-08	
1068	4.208546e-08	-7.55845e-08	
1069	4.212546e-08	5.800359e-08	
1070	4.216546e-08	-7.54100e-08	
1071	4.220546e-08	5.809744e-08	
1072	4.224546e-08	-7.52370e-08	
1073	4.228546e-08	5.819152e-08	
1074	4.232546e-08	-7.50641e-08	
1075	4.236546e-08	5.828382e-08	
1076	4.240546e-08	-7.48913e-08	
1077	4.244546e-08	5.837432e-08	
1078	4.248546e-08	-7.47196e-08	
1079	4.252546e-08	5.846556e-08	
1080	4.256546e-08	-7.45486e-08	
1081	4.260546e-08	5.855533e-08	
1082	4.264546e-08	-7.43774e-08	
1083	4.268546e-08	5.864323e-08	
1084	4.272546e-08	-7.42071e-08	
1085	4.276546e-08	5.873135e-08	
1086	4.280546e-08	-7.40375e-08	
1087	4.284546e-08	5.881817e-08	
1088	4.288546e-08	-7.38679e-08	
1089	4.292546e-08	5.890370e-08	
1090	4.296546e-08	-7.36995e-08	
1091	4.300546e-08	5.898933e-08	
1092	4.304546e-08	-7.35313e-08	
1093	4.308546e-08	5.907317e-08	
1094	4.312546e-08	-7.33631e-08	
1095	4.316546e-08	5.915592e-08	
1096	4.320546e-08	-7.31961e-08	
1097	4.324546e-08	5.923893e-08	
1098	4.328546e-08	-7.30294e-08	

Index   time            cf              
--------------------------------------------------------------------------------
1099	4.332546e-08	5.932010e-08	
1100	4.336546e-08	-7.28628e-08	
1101	4.340546e-08	5.940052e-08	
1102	4.344546e-08	-7.26973e-08	
1103	4.348546e-08	5.948060e-08	
1104	4.352546e-08	-7.25319e-08	
1105	4.356546e-08	5.955926e-08	
1106	4.360546e-08	-7.23669e-08	
1107	4.364546e-08	5.963716e-08	
1108	4.368546e-08	-7.22031e-08	
1109	4.372546e-08	5.971495e-08	
1110	4.376546e-08	-7.20388e-08	
1111	4.380546e-08	5.979066e-08	
1112	4.384546e-08	-7.18753e-08	
1113	4.388546e-08	5.986612e-08	
1114	4.392546e-08	-7.17127e-08	
1115	4.396546e-08	5.994142e-08	
1116	4.400546e-08	-7.15503e-08	
1117	4.404546e-08	6.001497e-08	
1118	4.408546e-08	-7.13882e-08	
1119	4.412546e-08	6.008798e-08	
1120	4.416546e-08	-7.12264e-08	
1121	4.420546e-08	6.016003e-08	
1122	4.424546e-08	-7.10656e-08	
1123	4.428546e-08	6.023159e-08	
1124	4.432546e-08	-7.09050e-08	
1125	4.436546e-08	6.030230e-08	
1126	4.440546e-08	-7.07448e-08	
1127	4.444546e-08	6.037223e-08	
1128	4.448546e-08	-7.05848e-08	
1129	4.452546e-08	6.044058e-08	
1130	4.456546e-08	-7.04259e-08	
1131	4.460546e-08	6.050946e-08	
1132	4.464546e-08	-7.02671e-08	
1133	4.468546e-08	6.057706e-08	
1134	4.472546e-08	-7.01087e-08	
1135	4.476546e-08	6.064333e-08	
1136	4.480546e-08	-6.99507e-08	
1137	4.484546e-08	6.070939e-08	
1138	4.488546e-08	-6.97933e-08	
1139	4.492546e-08	6.077473e-08	
1140	4.496546e-08	-6.96362e-08	
1141	4.500546e-08	6.083878e-08	
1142	4.504546e-08	-6.94795e-08	
1143	4.508546e-08	6.090256e-08	
1144	4.512546e-08	-6.93234e-08	
1145	4.516546e-08	6.096565e-08	
1146	4.520546e-08	-6.91677e-08	
1147	4.524546e-08	6.102766e-08	
1148	4.528546e-08	-6.90122e-08	
1149	4.532546e-08	6.108884e-08	
1150	4.536546e-08	-6.88574e-08	
1151	4.540546e-08	6.114977e-08	
1152	4.544546e-08	-6.87028e-08	
1153	4.548546e-08	6.120971e-08	
1154	4.552546e-08	-6.85489e-08	
1155	4.556546e-08	6.126889e-08	
1156	4.560546e-08	-6.83950e-08	

Index   time            cf              
--------------------------------------------------------------------------------
1157	4.564546e-08	6.132725e-08	
1158	4.568546e-08	-6.82419e-08	
1159	4.572546e-08	6.138513e-08	
1160	4.576546e-08	-6.80891e-08	
1161	4.580546e-08	6.144244e-08	
1162	4.584546e-08	-6.79369e-08	
1163	4.588546e-08	6.149863e-08	
1164	4.592546e-08	-6.77846e-08	
1165	4.596546e-08	6.155417e-08	
1166	4.600546e-08	-6.76330e-08	
1167	4.604546e-08	6.160919e-08	
1168	4.608546e-08	-6.74819e-08	
1169	4.612546e-08	6.166360e-08	
1170	4.616546e-08	-6.73314e-08	
1171	4.620546e-08	6.171738e-08	
1172	4.624546e-08	-6.71805e-08	
1173	4.628546e-08	6.176960e-08	
1174	4.632546e-08	-6.70305e-08	
1175	4.636546e-08	6.182218e-08	
1176	4.640546e-08	-6.68809e-08	
1177	4.644546e-08	6.187366e-08	
1178	4.648546e-08	-6.67321e-08	
1179	4.652546e-08	6.192502e-08	
1180	4.656546e-08	-6.65829e-08	
1181	4.660546e-08	6.197447e-08	
1182	4.664546e-08	-6.64343e-08	
1183	4.668546e-08	6.202437e-08	
1184	4.672546e-08	-6.62864e-08	
1185	4.676546e-08	6.207309e-08	
1186	4.680546e-08	-6.61388e-08	
1187	4.684546e-08	6.212176e-08	
1188	4.688546e-08	-6.59915e-08	
1189	4.692546e-08	6.216897e-08	
1190	4.696546e-08	-6.58444e-08	
1191	4.700546e-08	6.221578e-08	
1192	4.704546e-08	-6.56977e-08	
1193	4.708546e-08	6.226215e-08	
1194	4.712546e-08	-6.55520e-08	
1195	4.716546e-08	6.230851e-08	
1196	4.720546e-08	-6.54061e-08	
1197	4.724546e-08	6.235269e-08	
1198	4.728546e-08	-6.52602e-08	
1199	4.732546e-08	6.239718e-08	
1200	4.736546e-08	-6.51156e-08	
1201	4.740546e-08	6.244171e-08	
1202	4.744546e-08	-6.49709e-08	
1203	4.748546e-08	6.248404e-08	
1204	4.752546e-08	-6.48261e-08	
1205	4.756546e-08	6.252668e-08	
1206	4.760546e-08	-6.46827e-08	
1207	4.764546e-08	6.256939e-08	
1208	4.768546e-08	-6.45390e-08	
1209	4.772546e-08	6.260986e-08	
1210	4.776546e-08	-6.43953e-08	
1211	4.780546e-08	6.265065e-08	
1212	4.784546e-08	-6.42529e-08	
1213	4.788546e-08	6.269154e-08	
1214	4.792546e-08	-6.41103e-08	

Index   time            cf              
--------------------------------------------------------------------------------
1215	4.796546e-08	6.273029e-08	
1216	4.800546e-08	-6.39677e-08	
1217	4.804546e-08	6.276925e-08	
1218	4.808546e-08	-6.38264e-08	
1219	4.812546e-08	6.280834e-08	
1220	4.816546e-08	-6.36848e-08	
1221	4.820546e-08	6.284532e-08	
1222	4.824546e-08	-6.35433e-08	
1223	4.828546e-08	6.288258e-08	
1224	4.832546e-08	-6.34030e-08	
1225	4.836546e-08	6.291994e-08	
1226	4.840546e-08	-6.32633e-08	
1227	4.844546e-08	6.295671e-08	
1228	4.848546e-08	-6.31223e-08	
1229	4.852546e-08	6.298970e-08	
1230	4.856546e-08	-6.29821e-08	
1231	4.860546e-08	6.302604e-08	
1232	4.864546e-08	-6.28430e-08	
1233	4.868546e-08	6.305971e-08	
1234	4.872546e-08	-6.27044e-08	
1235	4.876546e-08	6.309522e-08	
1236	4.880546e-08	-6.25658e-08	
1237	4.884546e-08	6.312667e-08	
1238	4.888546e-08	-6.24264e-08	
1239	4.892546e-08	6.315919e-08	
1240	4.896546e-08	-6.22883e-08	
1241	4.900546e-08	6.319158e-08	
1242	4.904546e-08	-6.21519e-08	
1243	4.908546e-08	6.322557e-08	
1244	4.912546e-08	-6.20141e-08	
1245	4.916546e-08	6.325328e-08	
1246	4.920546e-08	-6.18757e-08	
1247	4.924546e-08	6.328453e-08	
1248	4.928546e-08	-6.17398e-08	
1249	4.932546e-08	6.331543e-08	
1250	4.936546e-08	-6.16042e-08	
1251	4.940546e-08	6.334571e-08	
1252	4.944546e-08	-6.14674e-08	
1253	4.948546e-08	6.337227e-08	
1254	4.952546e-08	-6.13312e-08	
1255	4.956546e-08	6.340206e-08	
1256	4.960546e-08	-6.11960e-08	
1257	4.964546e-08	6.342927e-08	
1258	4.968546e-08	-6.10614e-08	
1259	4.972546e-08	6.345847e-08	
1260	4.976546e-08	-6.09266e-08	
1261	4.980546e-08	6.348323e-08	
1262	4.984546e-08	-6.07910e-08	
1263	4.988546e-08	6.350971e-08	
1264	4.992546e-08	-6.06578e-08	
1265	4.996546e-08	6.353741e-08	
1266	5.000546e-08	-6.05240e-08	
1267	5.004546e-08	6.356062e-08	
1268	5.008546e-08	-6.03893e-08	
1269	5.012546e-08	6.358556e-08	
1270	5.016546e-08	-6.02570e-08	
1271	5.020546e-08	6.361191e-08	
1272	5.024546e-08	-6.01243e-08	

Index   time            cf              
--------------------------------------------------------------------------------
1273	5.028546e-08	6.363370e-08	
1274	5.032546e-08	-5.99905e-08	
1275	5.036546e-08	6.365705e-08	
1276	5.040546e-08	-5.98590e-08	
1277	5.044546e-08	6.368179e-08	
1278	5.048546e-08	-5.97272e-08	
1279	5.052546e-08	6.370241e-08	
1280	5.056546e-08	-5.95948e-08	
1281	5.060546e-08	6.372472e-08	
1282	5.064546e-08	-5.94639e-08	
1283	5.068546e-08	6.374719e-08	
1284	5.072546e-08	-5.93325e-08	
1285	5.076546e-08	6.376612e-08	
1286	5.080546e-08	-5.92013e-08	
1287	5.084546e-08	6.378769e-08	
1288	5.088546e-08	-5.90718e-08	
1289	5.092546e-08	6.380907e-08	
1290	5.096546e-08	-5.89410e-08	
1291	5.100546e-08	6.382597e-08	
1292	5.104546e-08	-5.88111e-08	
1293	5.108546e-08	6.384720e-08	
1294	5.112546e-08	-5.86817e-08	
1295	5.116546e-08	6.386573e-08	
1296	5.120546e-08	-5.85520e-08	
1297	5.124546e-08	6.388181e-08	
1298	5.128546e-08	-5.84221e-08	
1299	5.132546e-08	6.390000e-08	
1300	5.136546e-08	-5.82952e-08	
1301	5.140546e-08	6.392044e-08	
1302	5.144546e-08	-5.81658e-08	
1303	5.148546e-08	6.393351e-08	
1304	5.152546e-08	-5.80368e-08	
1305	5.156546e-08	6.395055e-08	
1306	5.160546e-08	-5.79097e-08	
1307	5.164546e-08	6.396788e-08	
1308	5.168546e-08	-5.77830e-08	
1309	5.172546e-08	6.398325e-08	
1310	5.176546e-08	-5.76539e-08	
1311	5.180546e-08	6.399635e-08	
1312	5.184546e-08	-5.75276e-08	
1313	5.188546e-08	6.401323e-08	
1314	5.192546e-08	-5.74010e-08	
1315	5.196546e-08	6.402553e-08	
1316	5.200546e-08	-5.72745e-08	
1317	5.204546e-08	6.404090e-08	
1318	5.208546e-08	-5.71484e-08	
1319	5.212546e-08	6.405422e-08	
1320	5.216546e-08	-5.70222e-08	
1321	5.220546e-08	6.406517e-08	
1322	5.224546e-08	-5.68966e-08	
1323	5.228546e-08	6.407953e-08	
1324	5.232546e-08	-5.67714e-08	
1325	5.236546e-08	6.409166e-08	
1326	5.240546e-08	-5.66460e-08	
1327	5.244546e-08	6.410137e-08	
1328	5.248546e-08	-5.65213e-08	
1329	5.252546e-08	6.411450e-08	
1330	5.256546e-08	-5.63969e-08	

Index   time            cf              
--------------------------------------------------------------------------------
1331	5.260546e-08	6.412541e-08	
1332	5.264546e-08	-5.62723e-08	
1333	5.268546e-08	6.413387e-08	
1334	5.272546e-08	-5.61484e-08	
1335	5.276546e-08	6.414578e-08	
1336	5.280546e-08	-5.60248e-08	
1337	5.284546e-08	6.415549e-08	
1338	5.288546e-08	-5.59011e-08	
1339	5.292546e-08	6.416278e-08	
1340	5.296546e-08	-5.57780e-08	
1341	5.300546e-08	6.417344e-08	
1342	5.304546e-08	-5.56552e-08	
1343	5.308546e-08	6.418197e-08	
1344	5.312546e-08	-5.55323e-08	
1345	5.316546e-08	6.418810e-08	
1346	5.320546e-08	-5.54099e-08	
1347	5.324546e-08	6.419761e-08	
1348	5.328546e-08	-5.52879e-08	
1349	5.332546e-08	6.420495e-08	
1350	5.336546e-08	-5.51658e-08	
1351	5.340546e-08	6.420992e-08	
1352	5.344546e-08	-5.50442e-08	
1353	5.348546e-08	6.421827e-08	
1354	5.352546e-08	-5.49230e-08	
1355	5.356546e-08	6.422447e-08	
1356	5.360546e-08	-5.48017e-08	
1357	5.364546e-08	6.422831e-08	
1358	5.368546e-08	-5.46809e-08	
1359	5.372546e-08	6.423553e-08	
1360	5.376546e-08	-5.45604e-08	
1361	5.380546e-08	6.424061e-08	
1362	5.384546e-08	-5.44398e-08	
1363	5.388546e-08	6.424335e-08	
1364	5.392546e-08	-5.43198e-08	
1365	5.396546e-08	6.424945e-08	
1366	5.400546e-08	-5.42001e-08	
1367	5.404546e-08	6.425343e-08	
1368	5.408546e-08	-5.40803e-08	
1369	5.412546e-08	6.425509e-08	
1370	5.416546e-08	-5.39611e-08	
1371	5.420546e-08	6.426010e-08	
1372	5.424546e-08	-5.38421e-08	
1373	5.428546e-08	6.426300e-08	
1374	5.432546e-08	-5.37231e-08	
1375	5.436546e-08	6.426360e-08	
1376	5.440546e-08	-5.36052e-08	
1377	5.444546e-08	6.426896e-08	
1378	5.448546e-08	-5.34861e-08	
1379	5.452546e-08	6.426722e-08	
1380	5.456546e-08	-5.33672e-08	
1381	5.460546e-08	6.426932e-08	
1382	5.464546e-08	-5.32511e-08	
1383	5.468546e-08	6.427344e-08	
1384	5.472546e-08	-5.31334e-08	
1385	5.476546e-08	6.427198e-08	
1386	5.480546e-08	-5.30148e-08	
1387	5.484546e-08	6.427086e-08	
1388	5.488546e-08	-5.28978e-08	

Index   time            cf              
--------------------------------------------------------------------------------
1389	5.492546e-08	6.427274e-08	
1390	5.496546e-08	-5.27813e-08	
1391	5.500546e-08	6.427296e-08	
1392	5.504546e-08	-5.26653e-08	
1393	5.508546e-08	6.427169e-08	
1394	5.512546e-08	-5.25485e-08	
1395	5.516546e-08	6.427030e-08	
1396	5.520546e-08	-5.24310e-08	
1397	5.524546e-08	6.426828e-08	
1398	5.528546e-08	-5.23162e-08	
1399	5.532546e-08	6.426868e-08	
1400	5.536546e-08	-5.22019e-08	
1401	5.540546e-08	6.426715e-08	
1402	5.544546e-08	-5.20854e-08	
1403	5.548546e-08	6.426319e-08	
1404	5.552546e-08	-5.19687e-08	
1405	5.556546e-08	6.425957e-08	
1406	5.560546e-08	-5.18544e-08	
1407	5.564546e-08	6.425829e-08	
1408	5.568546e-08	-5.17415e-08	
1409	5.572546e-08	6.425675e-08	
1410	5.576546e-08	-5.16262e-08	
1411	5.580546e-08	6.425092e-08	
1412	5.584546e-08	-5.15099e-08	
1413	5.588546e-08	6.424570e-08	
1414	5.592546e-08	-5.13970e-08	
1415	5.596546e-08	6.424423e-08	
1416	5.600546e-08	-5.12850e-08	
1417	5.604546e-08	6.424061e-08	
1418	5.608546e-08	-5.11700e-08	
1419	5.612546e-08	6.423324e-08	
1420	5.616546e-08	-5.10558e-08	
1421	5.620546e-08	6.422912e-08	
1422	5.624546e-08	-5.09436e-08	
1423	5.628546e-08	6.422357e-08	
1424	5.632546e-08	-5.08306e-08	
1425	5.636546e-08	6.421762e-08	
1426	5.640546e-08	-5.07182e-08	
1427	5.644546e-08	6.421375e-08	
1428	5.648546e-08	-5.06056e-08	
1429	5.652546e-08	6.420508e-08	
1430	5.656546e-08	-5.04931e-08	
1431	5.660546e-08	6.419873e-08	
1432	5.664546e-08	-5.03812e-08	
1433	5.668546e-08	6.419338e-08	
1434	5.672546e-08	-5.02693e-08	
1435	5.676546e-08	6.418454e-08	
1436	5.680546e-08	-5.01578e-08	
1437	5.684546e-08	6.417732e-08	
1438	5.688546e-08	-5.00468e-08	
1439	5.692546e-08	6.417141e-08	
1440	5.696546e-08	-4.99352e-08	
1441	5.700546e-08	6.416082e-08	
1442	5.704546e-08	-4.98243e-08	
1443	5.708546e-08	6.415335e-08	
1444	5.712546e-08	-4.97142e-08	
1445	5.716546e-08	6.414656e-08	
1446	5.720546e-08	-4.96034e-08	

Index   time            cf              
--------------------------------------------------------------------------------
1447	5.724546e-08	6.413545e-08	
1448	5.728546e-08	-4.94928e-08	
1449	5.732546e-08	6.412625e-08	
1450	5.736546e-08	-4.93833e-08	
1451	5.740546e-08	6.411921e-08	
1452	5.744546e-08	-4.92734e-08	
1453	5.748546e-08	6.410726e-08	
1454	5.752546e-08	-4.91637e-08	
1455	5.756546e-08	6.409754e-08	
1456	5.760546e-08	-4.90544e-08	
1457	5.764546e-08	6.408879e-08	
1458	5.768546e-08	-4.89452e-08	
1459	5.772546e-08	6.407664e-08	
1460	5.776546e-08	-4.88363e-08	
1461	5.780546e-08	6.406609e-08	
1462	5.784546e-08	-4.87278e-08	
1463	5.788546e-08	6.405684e-08	
1464	5.792546e-08	-4.86190e-08	
1465	5.796546e-08	6.404336e-08	
1466	5.800546e-08	-4.85104e-08	
1467	5.804546e-08	6.403174e-08	
1468	5.808546e-08	-4.84028e-08	
1469	5.812546e-08	6.402229e-08	
1470	5.816546e-08	-4.82949e-08	
1471	5.820546e-08	6.400797e-08	
1472	5.824546e-08	-4.81870e-08	
1473	5.828546e-08	6.399587e-08	
1474	5.832546e-08	-4.80799e-08	
1475	5.836546e-08	6.398509e-08	
1476	5.840546e-08	-4.79724e-08	
1477	5.844546e-08	6.397009e-08	
1478	5.848546e-08	-4.78652e-08	
1479	5.852546e-08	6.395729e-08	
1480	5.856546e-08	-4.77588e-08	
1481	5.860546e-08	6.394577e-08	
1482	5.864546e-08	-4.76519e-08	
1483	5.868546e-08	6.393004e-08	
1484	5.872546e-08	-4.75453e-08	
1485	5.876546e-08	6.391649e-08	
1486	5.880546e-08	-4.74395e-08	
1487	5.884546e-08	6.390430e-08	
1488	5.888546e-08	-4.73333e-08	
1489	5.892546e-08	6.388779e-08	
1490	5.896546e-08	-4.72273e-08	
1491	5.900546e-08	6.387351e-08	
1492	5.904546e-08	-4.71221e-08	
1493	5.908546e-08	6.386050e-08	
1494	5.912546e-08	-4.70164e-08	
1495	5.916546e-08	6.384332e-08	
1496	5.920546e-08	-4.69111e-08	
1497	5.924546e-08	6.382832e-08	
1498	5.928546e-08	-4.68065e-08	
1499	5.932546e-08	6.381461e-08	
1500	5.936546e-08	-4.67015e-08	
1501	5.940546e-08	6.379675e-08	
1502	5.944546e-08	-4.65967e-08	
1503	5.948546e-08	6.378104e-08	
1504	5.952546e-08	-4.64927e-08	

Index   time            cf              
--------------------------------------------------------------------------------
1505	5.956546e-08	6.376662e-08	
1506	5.960546e-08	-4.63882e-08	
1507	5.964546e-08	6.374806e-08	
1508	5.968546e-08	-4.62841e-08	
1509	5.972546e-08	6.373167e-08	
1510	5.976546e-08	-4.61807e-08	
1511	5.980546e-08	6.371657e-08	
1512	5.984546e-08	-4.60768e-08	
1513	5.988546e-08	6.369733e-08	
1514	5.992546e-08	-4.59738e-08	
1515	5.996546e-08	6.368086e-08	
1516	6.000000e-08	-4.35275e-08	
1517	6.000000e-08	-6.71803e-03	
1518	6.000000e-08	-2.00224e-02	
1519	6.000000e-08	-5.02921e-02	
1520	6.000000e-08	-7.20065e-02	
1521	6.000000e-08	-7.18012e-02	
1522	6.000000e-08	-7.13570e-02	
1523	6.000000e-08	-7.07050e-02	
1524	6.000000e-08	-6.92743e-02	
1525	6.000000e-08	-6.66273e-02	
1526	6.000000e-08	-6.20121e-02	
1527	6.000000e-08	-5.47585e-02	
1528	6.000001e-08	-4.55438e-02	
1529	6.000001e-08	-3.73786e-02	
1530	6.000003e-08	-3.34728e-02	
1531	6.000006e-08	-3.28103e-02	
1532	6.000010e-08	-3.25301e-02	
1533	6.000019e-08	-3.23709e-02	
1534	6.000036e-08	-3.18519e-02	
1535	6.000070e-08	-3.09744e-02	
1536	6.000139e-08	-2.90649e-02	
1537	6.000277e-08	-2.55413e-02	
1538	6.000553e-08	-1.92553e-02	
1539	6.001105e-08	-9.77118e-03	
1540	6.002209e-08	1.323032e-03	
1541	6.004417e-08	3.918059e-03	
1542	6.008417e-08	1.309637e-03	
1543	6.012417e-08	1.289104e-03	
1544	6.016417e-08	1.155101e-03	
1545	6.020417e-08	1.266538e-03	
1546	6.024417e-08	1.437185e-03	
1547	6.028417e-08	1.159297e-03	
1548	6.032417e-08	1.077851e-03	
1549	6.036417e-08	1.026587e-03	
1550	6.040417e-08	1.474138e-03	
1551	6.044417e-08	1.773096e-03	
1552	6.048417e-08	1.676257e-03	
1553	6.052417e-08	1.188850e-03	
1554	6.056417e-08	9.173489e-04	
1555	6.060417e-08	5.407935e-04	
1556	6.064417e-08	3.959537e-04	
1557	6.068417e-08	1.993703e-04	
1558	6.072417e-08	2.102897e-04	
1559	6.076417e-08	1.338182e-04	
1560	6.080417e-08	2.520256e-04	
1561	6.084417e-08	1.308798e-04	
1562	6.088417e-08	1.422843e-04	

Index   time            cf              
--------------------------------------------------------------------------------
1563	6.092417e-08	4.691951e-05	
1564	6.096417e-08	1.109340e-04	
1565	6.100417e-08	2.805843e-05	
1566	6.104417e-08	9.473971e-05	
1567	6.108417e-08	1.454879e-05	
1568	6.112417e-08	8.540666e-05	
1569	6.116417e-08	8.939678e-06	
1570	6.120417e-08	7.548369e-05	
1571	6.124417e-08	-6.72548e-06	
1572	6.128417e-08	5.924535e-05	
1573	6.132417e-08	-1.82416e-05	
1574	6.136417e-08	1.450134e-04	
1575	6.140417e-08	1.268434e-04	
1576	6.144417e-08	1.384557e-04	
1577	6.148417e-08	2.398797e-05	
1578	6.152417e-08	8.565526e-05	
1579	6.156417e-08	-1.04586e-06	
1580	6.160417e-08	6.190456e-05	
1581	6.164417e-08	-2.63504e-05	
1582	6.168417e-08	3.346430e-05	
1583	6.172417e-08	-5.56337e-05	
1584	6.176417e-08	1.065459e-05	
1585	6.180417e-08	-6.28551e-05	
1586	6.184417e-08	1.458813e-05	
1587	6.188417e-08	-4.98632e-05	
1588	6.192417e-08	3.513999e-05	
1589	6.196417e-08	-2.52787e-05	
1590	6.200417e-08	5.282553e-05	
1591	6.204417e-08	-2.86984e-05	
1592	6.208417e-08	4.472865e-05	
1593	6.212417e-08	-3.06919e-05	
1594	6.216417e-08	4.054790e-05	
1595	6.220417e-08	-3.05375e-05	
1596	6.224417e-08	4.137696e-05	
1597	6.228417e-08	-2.90912e-05	
1598	6.232417e-08	4.397574e-05	
1599	6.236417e-08	-2.75331e-05	
1600	6.240417e-08	4.417946e-05	
1601	6.244417e-08	-2.65545e-05	
1602	6.248417e-08	4.492182e-05	
1603	6.252417e-08	-2.71635e-05	
1604	6.256417e-08	4.360227e-05	
1605	6.260417e-08	-2.75765e-05	
1606	6.264417e-08	4.743167e-05	
1607	6.268417e-08	-2.33596e-05	
1608	6.272417e-08	4.424341e-05	
1609	6.276417e-08	-2.77685e-05	
1610	6.280417e-08	4.992840e-05	
1611	6.284417e-08	-1.01947e-05	
1612	6.288417e-08	7.271755e-05	
1613	6.292417e-08	1.703458e-05	
1614	6.296417e-08	7.881079e-05	
1615	6.300417e-08	-3.47343e-04	
1616	6.304417e-08	-7.59833e-04	
1617	6.308417e-08	-6.80778e-04	
1618	6.312417e-08	4.619892e-04	
1619	6.316417e-08	1.221479e-03	
1620	6.320417e-08	1.251465e-03	

Index   time            cf              
--------------------------------------------------------------------------------
1621	6.324417e-08	8.209639e-04	
1622	6.328417e-08	3.310527e-04	
1623	6.332417e-08	-8.10491e-05	
1624	6.336417e-08	-1.18345e-05	
1625	6.340417e-08	-2.09832e-05	
1626	6.344417e-08	1.535012e-05	
1627	6.348417e-08	-8.44436e-05	
1628	6.352417e-08	-9.42460e-06	
1629	6.356417e-08	-7.99188e-05	
1630	6.360417e-08	-1.48497e-05	
1631	6.364417e-08	-7.04062e-05	
1632	6.368417e-08	1.682352e-05	
1633	6.372417e-08	-4.34234e-05	
1634	6.376417e-08	2.552199e-05	
1635	6.380417e-08	-3.88930e-05	
1636	6.384417e-08	3.440695e-05	
1637	6.388417e-08	-3.45447e-05	
1638	6.392417e-08	3.763638e-05	
1639	6.396417e-08	-3.39758e-05	
1640	6.400417e-08	3.418629e-05	
1641	6.404417e-08	-3.05429e-05	
1642	6.408417e-08	4.981668e-05	
1643	6.412417e-08	-2.32246e-05	
1644	6.416417e-08	3.955574e-05	
1645	6.420417e-08	-3.02943e-05	
1646	6.424417e-08	3.865138e-05	
1647	6.428417e-08	-4.92858e-05	
1648	6.432417e-08	-1.86072e-05	
1649	6.436417e-08	-1.29667e-04	
1650	6.440417e-08	-8.96039e-05	
1651	6.444417e-08	-2.03257e-04	
1652	6.448417e-08	-2.22512e-04	
1653	6.452417e-08	-2.51814e-04	
1654	6.456417e-08	7.256909e-05	
1655	6.460417e-08	2.045918e-04	
1656	6.464417e-08	2.739285e-04	
1657	6.468417e-08	6.934199e-05	
1658	6.472417e-08	-4.06850e-05	
1659	6.476417e-08	1.222791e-04	
1660	6.480417e-08	7.429693e-04	
1661	6.484417e-08	7.186537e-04	
1662	6.488417e-08	2.060407e-04	
1663	6.492417e-08	-4.75750e-04	
1664	6.496417e-08	-4.08299e-04	
1665	6.500417e-08	-2.79238e-04	
1666	6.504417e-08	-1.09901e-04	
1667	6.508417e-08	-1.06950e-04	
1668	6.512417e-08	-5.43417e-07	
1669	6.516417e-08	-4.75990e-05	
1670	6.520417e-08	3.102744e-05	
1671	6.524417e-08	-3.04778e-05	
1672	6.528417e-08	4.282352e-05	
1673	6.532417e-08	-2.26689e-05	
1674	6.536417e-08	4.309264e-05	
1675	6.540417e-08	-3.48172e-05	
1676	6.544417e-08	2.616881e-05	
1677	6.548417e-08	-3.53452e-05	
1678	6.552417e-08	3.063684e-05	

Index   time            cf              
--------------------------------------------------------------------------------
1679	6.556417e-08	-5.36492e-05	
1680	6.560417e-08	6.664374e-05	
1681	6.564417e-08	1.598280e-04	
1682	6.568417e-08	3.911124e-04	
1683	6.572417e-08	3.535055e-04	
1684	6.576417e-08	-8.40314e-06	
1685	6.580417e-08	-1.10171e-03	
1686	6.584417e-08	-1.18275e-03	
1687	6.588417e-08	-5.69546e-04	
1688	6.592417e-08	-8.93093e-04	
1689	6.596417e-08	1.056954e-04	
1690	6.600417e-08	6.338887e-04	
1691	6.604417e-08	2.260820e-04	
1692	6.608417e-08	1.645839e-04	
1693	6.612417e-08	-8.42468e-06	
1694	6.616417e-08	-1.49111e-05	
1695	6.620417e-08	-1.22427e-04	
1696	6.624417e-08	-3.60904e-05	
1697	6.628417e-08	-8.85802e-05	
1698	6.632417e-08	8.115267e-05	
1699	6.636417e-08	3.423273e-05	
1700	6.640417e-08	5.335231e-05	
1701	6.644417e-08	-3.19964e-05	
1702	6.648417e-08	3.741273e-05	
1703	6.652417e-08	-3.11968e-05	
1704	6.656417e-08	3.876661e-05	
1705	6.660417e-08	-3.16980e-05	
1706	6.664417e-08	3.840660e-05	
1707	6.668417e-08	-3.00308e-05	
1708	6.672417e-08	4.070460e-05	
1709	6.676417e-08	-3.25998e-05	
1710	6.680417e-08	3.381549e-05	
1711	6.684417e-08	-3.96277e-05	
1712	6.688417e-08	2.055029e-05	
1713	6.692417e-08	2.878391e-06	
1714	6.696417e-08	1.603556e-04	
1715	6.700417e-08	7.404421e-05	
1716	6.704417e-08	8.218748e-05	
1717	6.708417e-08	-3.29531e-06	
1718	6.712417e-08	5.418972e-05	
1719	6.716417e-08	-2.12553e-05	
1720	6.720417e-08	4.075096e-05	
1721	6.724417e-08	-4.63075e-05	
1722	6.728417e-08	-3.06934e-06	
1723	6.732417e-08	-7.69978e-05	
1724	6.736417e-08	-9.44384e-06	
1725	6.740417e-08	-7.54788e-05	
1726	6.744417e-08	-2.67391e-06	
1727	6.748417e-08	-5.39970e-05	
1728	6.752417e-08	2.803737e-05	
1729	6.756417e-08	-2.59830e-05	
1730	6.760417e-08	3.519620e-05	
1731	6.764417e-08	-3.59118e-05	
1732	6.768417e-08	3.062597e-05	
1733	6.772417e-08	-4.00467e-05	
1734	6.776417e-08	2.803677e-05	
1735	6.780417e-08	-3.87447e-05	
1736	6.784417e-08	3.035499e-05	

Index   time            cf              
--------------------------------------------------------------------------------
1737	6.788417e-08	-3.57306e-05	
1738	6.792417e-08	3.152727e-05	
1739	6.796417e-08	-3.40257e-05	
1740	6.800417e-08	3.341884e-05	
1741	6.804417e-08	-3.32826e-05	
1742	6.808417e-08	3.281892e-05	
1743	6.812417e-08	-3.34143e-05	
1744	6.816417e-08	3.556369e-05	
1745	6.820417e-08	-2.78508e-05	
1746	6.824417e-08	3.583886e-05	
1747	6.828417e-08	-3.30479e-05	
1748	6.832417e-08	3.777178e-05	
1749	6.836417e-08	-1.84582e-05	
1750	6.840417e-08	6.005180e-05	
1751	6.844417e-08	6.923337e-06	
1752	6.848417e-08	8.045566e-05	
1753	6.852417e-08	-1.67481e-04	
1754	6.856417e-08	-6.14832e-04	
1755	6.860417e-08	-9.17496e-04	
1756	6.864417e-08	3.373927e-05	
1757	6.868417e-08	1.031838e-03	
1758	6.872417e-08	1.327774e-03	
1759	6.876417e-08	9.784891e-04	
1760	6.880417e-08	5.448725e-04	
1761	6.884417e-08	-1.68857e-05	
1762	6.888417e-08	-3.21243e-05	
1763	6.892417e-08	-3.64620e-05	
1764	6.896417e-08	3.119702e-05	
1765	6.900417e-08	-8.22586e-05	
1766	6.904417e-08	-1.78372e-05	
1767	6.908417e-08	-7.86804e-05	
1768	6.912417e-08	-2.09947e-05	
1769	6.916417e-08	-7.89083e-05	
1770	6.920417e-08	5.078683e-06	
1771	6.924417e-08	-4.67229e-05	
1772	6.928417e-08	1.995978e-05	
1773	6.932417e-08	-4.27831e-05	
1774	6.936417e-08	2.829278e-05	
1775	6.940417e-08	-3.65690e-05	
1776	6.944417e-08	3.158483e-05	
1777	6.948417e-08	-3.34024e-05	
1778	6.952417e-08	3.279964e-05	
1779	6.956417e-08	-3.68134e-05	
1780	6.960417e-08	3.202359e-05	
1781	6.964417e-08	-2.45318e-05	
1782	6.968417e-08	4.369711e-05	
1783	6.972417e-08	-2.86912e-05	
1784	6.976417e-08	3.387060e-05	
1785	6.980417e-08	-3.05085e-05	
1786	6.984417e-08	2.671856e-05	
1787	6.988417e-08	-6.89319e-05	
1788	6.992417e-08	-4.82477e-05	
1789	6.996417e-08	-1.49044e-04	
1790	7.000417e-08	-1.14163e-04	
1791	7.004417e-08	-2.52708e-04	
1792	7.008417e-08	-2.35222e-04	
1793	7.012417e-08	-1.20535e-04	
1794	7.016417e-08	2.006609e-04	

Index   time            cf              
--------------------------------------------------------------------------------
1795	7.020417e-08	2.269040e-04	
1796	7.024417e-08	2.008912e-04	
1797	7.028417e-08	4.441293e-06	
1798	7.032417e-08	-2.02558e-05	
1799	7.036417e-08	3.889700e-04	
1800	7.040417e-08	8.591604e-04	
1801	7.044417e-08	4.682802e-04	
1802	7.048417e-08	-1.81425e-04	
1803	7.052417e-08	-5.49152e-04	
1804	7.056417e-08	-2.82687e-04	
1805	7.060417e-08	-2.20925e-04	
1806	7.064417e-08	-6.99946e-05	
1807	7.068417e-08	-8.26535e-05	
1808	7.072417e-08	7.887792e-06	
1809	7.076417e-08	-4.06856e-05	
1810	7.080417e-08	3.151603e-05	
1811	7.084417e-08	-2.56585e-05	
1812	7.088417e-08	4.093187e-05	
1813	7.092417e-08	-2.59978e-05	
1814	7.096417e-08	2.691437e-05	
1815	7.100417e-08	-4.11562e-05	
1816	7.104417e-08	3.040344e-05	
1817	7.108417e-08	-3.98889e-05	
1818	7.112417e-08	1.115091e-05	
1819	7.116417e-08	2.134773e-05	
1820	7.120417e-08	2.573924e-04	
1821	7.124417e-08	3.446952e-04	
1822	7.128417e-08	3.708526e-04	
1823	7.132417e-08	-1.94520e-04	
1824	7.136417e-08	-1.25190e-03	
1825	7.140417e-08	-1.02676e-03	
1826	7.144417e-08	-5.57208e-04	
1827	7.148417e-08	-9.01497e-04	
1828	7.152417e-08	3.686482e-04	
1829	7.156417e-08	5.076681e-04	
1830	7.160417e-08	2.542322e-04	
1831	7.164417e-08	7.757527e-05	
1832	7.168417e-08	3.966819e-05	
1833	7.172417e-08	-9.35999e-05	
1834	7.176417e-08	-5.73199e-05	
1835	7.180417e-08	-1.01842e-04	
1836	7.184417e-08	-1.17971e-05	
1837	7.188417e-08	2.528029e-05	
1838	7.192417e-08	9.229525e-05	
1839	7.196417e-08	-2.10382e-05	
1840	7.200417e-08	3.161892e-05	
1841	7.204417e-08	-3.00555e-05	
1842	7.208417e-08	3.308521e-05	
1843	7.212417e-08	-2.90456e-05	
1844	7.216417e-08	3.251415e-05	
1845	7.220417e-08	-2.89193e-05	
1846	7.224417e-08	3.246289e-05	
1847	7.228417e-08	-2.62600e-05	
1848	7.232417e-08	3.305368e-05	
1849	7.236417e-08	-3.09167e-05	
1850	7.240417e-08	3.007863e-05	
1851	7.244417e-08	-3.70300e-05	
1852	7.248417e-08	1.911381e-05	

Index   time            cf              
--------------------------------------------------------------------------------
1853	7.252417e-08	-1.39964e-05	
1854	7.256417e-08	1.394407e-04	
1855	7.260417e-08	8.500017e-05	
1856	7.264417e-08	8.720334e-05	
1857	7.268417e-08	2.529644e-07	
1858	7.272417e-08	5.483891e-05	
1859	7.276417e-08	-9.87208e-06	
1860	7.280417e-08	4.097400e-05	
1861	7.284417e-08	-4.72694e-05	
1862	7.288417e-08	-4.82390e-06	
1863	7.292417e-08	-7.63654e-05	
1864	7.296417e-08	-1.38528e-05	
1865	7.300417e-08	-7.85250e-05	
1866	7.304417e-08	-1.00834e-05	
1867	7.308417e-08	-5.62937e-05	
1868	7.312417e-08	2.297795e-05	
1869	7.316417e-08	-2.52184e-05	
1870	7.320417e-08	3.564164e-05	
1871	7.324417e-08	-3.42118e-05	
1872	7.328417e-08	2.812822e-05	
1873	7.332417e-08	-3.89109e-05	
1874	7.336417e-08	2.377700e-05	
1875	7.340417e-08	-3.71004e-05	
1876	7.344417e-08	2.576368e-05	
1877	7.348417e-08	-3.57762e-05	
1878	7.352417e-08	2.789601e-05	
1879	7.356417e-08	-3.34217e-05	
1880	7.360417e-08	2.896422e-05	
1881	7.364417e-08	-3.35259e-05	
1882	7.368417e-08	2.923328e-05	
1883	7.372417e-08	-2.99397e-05	
1884	7.376417e-08	3.498202e-05	
1885	7.380417e-08	-3.03505e-05	
1886	7.384417e-08	3.001474e-05	
1887	7.388417e-08	-2.70085e-05	
1888	7.392417e-08	4.587378e-05	
1889	7.396417e-08	-4.75428e-06	
1890	7.400417e-08	7.232877e-05	
1891	7.404417e-08	1.239891e-05	
1892	7.408417e-08	-1.51750e-04	
1893	7.412417e-08	-7.22344e-04	
1894	7.416417e-08	-8.07285e-04	
1895	7.420417e-08	8.438144e-05	
1896	7.424417e-08	1.158143e-03	
1897	7.428417e-08	1.244999e-03	
1898	7.432417e-08	1.001668e-03	
1899	7.436417e-08	4.172819e-04	
1900	7.440417e-08	2.056727e-05	
1901	7.444417e-08	-9.49160e-05	
1902	7.448417e-08	3.304958e-05	
1903	7.452417e-08	-4.00320e-05	
1904	7.456417e-08	-1.97983e-05	
1905	7.460417e-08	-8.21595e-05	
1906	7.464417e-08	-1.54908e-05	
1907	7.468417e-08	-8.59059e-05	
1908	7.472417e-08	-1.42181e-05	
1909	7.476417e-08	-5.74808e-05	
1910	7.480417e-08	1.676595e-05	

Index   time            cf              
--------------------------------------------------------------------------------
1911	7.484417e-08	-4.44930e-05	
1912	7.488417e-08	2.073920e-05	
1913	7.492417e-08	-3.56477e-05	
1914	7.496417e-08	2.609819e-05	
1915	7.500417e-08	-3.22507e-05	
1916	7.504417e-08	2.896162e-05	
1917	7.508417e-08	-3.01328e-05	
1918	7.512417e-08	2.843308e-05	
1919	7.516417e-08	-3.34798e-05	
1920	7.520417e-08	3.013902e-05	
1921	7.524417e-08	-2.26070e-05	
1922	7.528417e-08	3.983085e-05	
1923	7.532417e-08	-2.76714e-05	
1924	7.536417e-08	3.095959e-05	
1925	7.540417e-08	-2.87910e-05	
1926	7.544417e-08	2.316896e-05	
1927	7.548417e-08	-7.15158e-05	
1928	7.552417e-08	-5.81682e-05	
1929	7.556417e-08	-1.50513e-04	
1930	7.560417e-08	-1.21449e-04	
1931	7.564417e-08	-2.60476e-04	
1932	7.568417e-08	-2.26074e-04	
1933	7.572417e-08	-8.86728e-05	
1934	7.576417e-08	2.109065e-04	
1935	7.580417e-08	2.229405e-04	
1936	7.584417e-08	1.845529e-04	
1937	7.588417e-08	-9.93294e-06	
1938	7.592417e-08	2.590390e-06	
1939	7.596417e-08	4.355442e-04	
1940	7.600417e-08	8.523300e-04	
1941	7.604417e-08	4.137736e-04	
1942	7.608417e-08	-2.36298e-04	
1943	7.612417e-08	-5.38699e-04	
1944	7.616417e-08	-2.67888e-04	
1945	7.620417e-08	-2.10292e-04	
1946	7.624417e-08	-6.67698e-05	
1947	7.628417e-08	-7.89034e-05	
1948	7.632417e-08	7.333865e-06	
1949	7.636417e-08	-3.68904e-05	
1950	7.640417e-08	3.279849e-05	
1951	7.644417e-08	-2.40065e-05	
1952	7.648417e-08	3.161906e-05	
1953	7.652417e-08	-3.89670e-05	
1954	7.656417e-08	2.272274e-05	
1955	7.660417e-08	-3.04323e-05	
1956	7.664417e-08	1.328452e-05	
1957	7.668417e-08	-3.59784e-05	
1958	7.672417e-08	1.414549e-04	
1959	7.676417e-08	2.613190e-04	
1960	7.680417e-08	4.421912e-04	
1961	7.684417e-08	1.581179e-04	
1962	7.688417e-08	-4.65687e-04	
1963	7.692417e-08	-1.51423e-03	
1964	7.696417e-08	-6.29013e-04	
1965	7.700417e-08	-8.53602e-04	
1966	7.704417e-08	-4.22571e-04	
1967	7.708417e-08	5.630363e-04	
1968	7.712417e-08	4.185736e-04	

Index   time            cf              
--------------------------------------------------------------------------------
1969	7.716417e-08	1.412380e-04	
1970	7.720417e-08	9.443408e-05	
1971	7.724417e-08	-5.27389e-05	
1972	7.728417e-08	-5.38784e-05	
1973	7.732417e-08	-1.09489e-04	
1974	7.736417e-08	-4.08516e-05	
1975	7.740417e-08	-2.70833e-05	
1976	7.744417e-08	9.762925e-05	
1977	7.748417e-08	9.206874e-06	
1978	7.752417e-08	3.116282e-05	
1979	7.756417e-08	-2.90011e-05	
1980	7.760417e-08	2.944743e-05	
1981	7.764417e-08	-2.67971e-05	
1982	7.768417e-08	2.959473e-05	
1983	7.772417e-08	-2.76745e-05	
1984	7.776417e-08	3.030904e-05	
1985	7.780417e-08	-2.83483e-05	
1986	7.784417e-08	3.290793e-05	
1987	7.788417e-08	-2.74699e-05	
1988	7.792417e-08	2.921533e-05	
1989	7.796417e-08	-2.83947e-05	
1990	7.800417e-08	2.629920e-05	
1991	7.804417e-08	-3.56297e-05	
1992	7.808417e-08	1.705124e-05	
1993	7.812417e-08	-4.72641e-06	
1994	7.816417e-08	1.365826e-04	
1995	7.820417e-08	7.846343e-05	
1996	7.824417e-08	8.406120e-05	
1997	7.828417e-08	9.800907e-06	
1998	7.832417e-08	6.091650e-05	
1999	7.836417e-08	-1.40599e-05	
2000	7.840417e-08	2.996204e-05	
2001	7.844417e-08	-4.74967e-05	
2002	7.848417e-08	-8.54520e-06	
2003	7.852417e-08	-7.72673e-05	
2004	7.856417e-08	-2.13657e-05	
2005	7.860417e-08	-7.87390e-05	
2006	7.864417e-08	-9.41620e-06	
2007	7.868417e-08	-5.07422e-05	
2008	7.872417e-08	2.355925e-05	
2009	7.876417e-08	-2.14345e-05	
2010	7.880417e-08	3.352997e-05	
2011	7.884417e-08	-3.26258e-05	
2012	7.888417e-08	2.491897e-05	
2013	7.892417e-08	-3.71616e-05	
2014	7.896417e-08	2.155765e-05	
2015	7.900417e-08	-3.67443e-05	
2016	7.904417e-08	2.260921e-05	
2017	7.908417e-08	-3.39255e-05	
2018	7.912417e-08	2.448996e-05	
2019	7.916417e-08	-3.32835e-05	
2020	7.920417e-08	2.524596e-05	
2021	7.924417e-08	-3.01063e-05	
2022	7.928417e-08	3.165613e-05	
2023	7.932417e-08	-2.83946e-05	
2024	7.936417e-08	2.680114e-05	
2025	7.940417e-08	-2.70772e-05	
2026	7.944417e-08	4.066302e-05	

Index   time            cf              
--------------------------------------------------------------------------------
2027	7.948417e-08	-5.38636e-06	
2028	7.952417e-08	6.602857e-05	
2029	7.956417e-08	1.789667e-05	
2030	7.960417e-08	-6.24620e-05	
2031	7.964417e-08	-6.33860e-04	
2032	7.968417e-08	-8.90438e-04	
2033	7.972417e-08	-1.41572e-04	
2034	7.976417e-08	1.016286e-03	
2035	7.980417e-08	1.278379e-03	
2036	7.984417e-08	1.075930e-03	
2037	7.988417e-08	5.425262e-04	
2038	7.992417e-08	7.644156e-05	
2039	7.996417e-08	-9.83665e-05	
2040	8.000417e-08	1.691253e-05	
2041	8.004417e-08	-2.65294e-05	
2042	8.008417e-08	-1.93538e-05	
2043	8.012417e-08	-8.11946e-05	
2044	8.016417e-08	-1.85491e-05	
2045	8.020417e-08	-8.31905e-05	
2046	8.024417e-08	-2.04638e-05	
2047	8.028417e-08	-5.87070e-05	
2048	8.032417e-08	1.225726e-05	
2049	8.036417e-08	-4.21825e-05	
2050	8.040417e-08	1.666885e-05	
2051	8.044417e-08	-3.41613e-05	
2052	8.048417e-08	2.312106e-05	
2053	8.052417e-08	-3.06202e-05	
2054	8.056417e-08	2.632234e-05	
2055	8.060417e-08	-2.89335e-05	
2056	8.064417e-08	2.800681e-05	
2057	8.068417e-08	-2.88132e-05	
2058	8.072417e-08	2.492871e-05	
2059	8.076417e-08	-2.94085e-05	
2060	8.080417e-08	3.220042e-05	
2061	8.084417e-08	-1.92487e-05	
2062	8.088417e-08	3.365291e-05	
2063	8.092417e-08	-2.79063e-05	
2064	8.096417e-08	3.067497e-05	
2065	8.100417e-08	-2.89410e-05	
2066	8.104417e-08	1.785018e-06	
2067	8.108417e-08	-9.89886e-05	
2068	8.112417e-08	-8.11409e-05	
2069	8.116417e-08	-1.64040e-04	
2070	8.120417e-08	-1.61171e-04	
2071	8.124417e-08	-2.89761e-04	
2072	8.128417e-08	-1.34872e-04	
2073	8.132417e-08	5.993155e-05	
2074	8.136417e-08	2.686538e-04	
2075	8.140417e-08	1.806649e-04	
2076	8.144417e-08	1.029963e-04	
2077	8.148417e-08	-1.37232e-04	
2078	8.152417e-08	2.522087e-04	
2079	8.156417e-08	7.432049e-04	
2080	8.160417e-08	7.347425e-04	
2081	8.164417e-08	5.018265e-05	
2082	8.168417e-08	-4.52993e-04	
2083	8.172417e-08	-4.47083e-04	
2084	8.176417e-08	-2.08370e-04	

Index   time            cf              
--------------------------------------------------------------------------------
2085	8.180417e-08	-1.67875e-04	
2086	8.184417e-08	-4.40598e-05	
2087	8.188417e-08	-6.38778e-05	
2088	8.192417e-08	1.550091e-05	
2089	8.196417e-08	-2.96448e-05	
2090	8.200417e-08	2.932556e-05	
2091	8.204417e-08	-3.50506e-05	
2092	8.208417e-08	1.756533e-05	
2093	8.212417e-08	-3.02527e-05	
2094	8.216417e-08	2.097915e-05	
2095	8.220417e-08	-4.88621e-05	
2096	8.224417e-08	7.452310e-05	
2097	8.228417e-08	1.873118e-04	
2098	8.232417e-08	3.969557e-04	
2099	8.236417e-08	3.226981e-04	
2100	8.240417e-08	-1.06520e-04	
2101	8.244417e-08	-1.26101e-03	
2102	8.248417e-08	-9.97958e-04	
2103	8.252417e-08	-5.91225e-04	
2104	8.256417e-08	-8.82736e-04	
2105	8.260417e-08	2.528303e-04	
2106	8.264417e-08	5.828691e-04	
2107	8.268417e-08	2.039746e-04	
2108	8.272417e-08	1.415068e-04	
2109	8.276417e-08	-1.52880e-05	
2110	8.280417e-08	-3.21696e-05	
2111	8.284417e-08	-1.17973e-04	
2112	8.288417e-08	-4.45174e-05	
2113	8.292417e-08	-7.60102e-05	
2114	8.296417e-08	7.972111e-05	
2115	8.300417e-08	3.432895e-05	
2116	8.304417e-08	3.940030e-05	
2117	8.308417e-08	-2.83860e-05	
2118	8.312417e-08	2.808779e-05	
2119	8.316417e-08	-2.72188e-05	
2120	8.320417e-08	2.950572e-05	
2121	8.324417e-08	-2.77723e-05	
2122	8.328417e-08	2.921152e-05	
2123	8.332417e-08	-2.70415e-05	
2124	8.336417e-08	2.853819e-05	
2125	8.340417e-08	-2.56901e-05	
2126	8.344417e-08	3.007099e-05	
2127	8.348417e-08	-2.78904e-05	
2128	8.352417e-08	2.875801e-05	
2129	8.356417e-08	-2.80613e-05	
2130	8.360417e-08	2.395085e-05	
2131	8.364417e-08	-3.30120e-05	
2132	8.368417e-08	1.612177e-05	
2133	8.372417e-08	-8.19709e-06	
2134	8.376417e-08	1.240531e-04	
2135	8.380417e-08	8.107758e-05	
2136	8.384417e-08	9.471076e-05	
2137	8.388417e-08	1.603951e-05	
2138	8.392417e-08	5.330598e-05	
2139	8.396417e-08	-1.32690e-05	
2140	8.400417e-08	2.987552e-05	
2141	8.404417e-08	-4.44449e-05	
2142	8.408417e-08	-1.28521e-05	

Index   time            cf              
--------------------------------------------------------------------------------
2143	8.412417e-08	-7.89514e-05	
2144	8.416417e-08	-2.23064e-05	
2145	8.420417e-08	-7.35517e-05	
2146	8.424417e-08	-1.01491e-05	
2147	8.428417e-08	-4.93315e-05	
2148	8.432417e-08	2.076332e-05	
2149	8.436417e-08	-2.09279e-05	
2150	8.440417e-08	3.245282e-05	
2151	8.444417e-08	-3.08290e-05	
2152	8.448417e-08	2.366504e-05	
2153	8.452417e-08	-3.54105e-05	
2154	8.456417e-08	1.786656e-05	
2155	8.460417e-08	-3.46396e-05	
2156	8.464417e-08	1.969985e-05	
2157	8.468417e-08	-3.29860e-05	
2158	8.472417e-08	2.061459e-05	
2159	8.476417e-08	-3.15680e-05	
2160	8.480417e-08	2.549033e-05	
2161	8.484417e-08	-2.50955e-05	
2162	8.488417e-08	2.554075e-05	
2163	8.492417e-08	-2.93270e-05	
2164	8.496417e-08	2.985259e-05	
2165	8.500417e-08	-1.27766e-05	
2166	8.504417e-08	5.295333e-05	
2167	8.508417e-08	1.377875e-05	
2168	8.512417e-08	6.881079e-05	
2169	8.516417e-08	-2.34094e-04	
2170	8.520417e-08	-6.85929e-04	
2171	8.524417e-08	-8.36994e-04	
2172	8.528417e-08	1.964384e-04	
2173	8.532417e-08	1.127780e-03	
2174	8.536417e-08	1.291240e-03	
2175	8.540417e-08	9.229690e-04	
2176	8.544417e-08	4.439870e-04	
2177	8.548417e-08	-4.98153e-05	
2178	8.552417e-08	-3.51160e-05	
2179	8.556417e-08	-2.26345e-05	
2180	8.560417e-08	1.461916e-05	
2181	8.564417e-08	-7.87551e-05	
2182	8.568417e-08	-2.46151e-05	
2183	8.572417e-08	-7.37101e-05	
2184	8.576417e-08	-2.90834e-05	
2185	8.580417e-08	-7.10149e-05	
2186	8.584417e-08	-5.72956e-08	
2187	8.588417e-08	-4.04246e-05	
2188	8.592417e-08	1.187808e-05	
2189	8.596417e-08	-3.64281e-05	
2190	8.600417e-08	2.103076e-05	
2191	8.604417e-08	-3.14739e-05	
2192	8.608417e-08	2.431523e-05	
2193	8.612417e-08	-2.83399e-05	
2194	8.616417e-08	2.581911e-05	
2195	8.620417e-08	-2.72390e-05	
2196	8.624417e-08	2.694978e-05	
2197	8.628417e-08	-2.84256e-05	
2198	8.632417e-08	2.434471e-05	
2199	8.636417e-08	-2.69816e-05	
2200	8.640417e-08	3.095789e-05	

Index   time            cf              
--------------------------------------------------------------------------------
2201	8.644417e-08	-1.83468e-05	
2202	8.648417e-08	3.135093e-05	
2203	8.652417e-08	-2.39533e-05	
2204	8.656417e-08	2.774454e-05	
2205	8.660417e-08	-3.13157e-05	
2206	8.664417e-08	-6.22760e-06	
2207	8.668417e-08	-1.04252e-04	
2208	8.672417e-08	-8.67158e-05	
2209	8.676417e-08	-1.62869e-04	
2210	8.680417e-08	-1.64672e-04	
2211	8.684417e-08	-2.75712e-04	
2212	8.688417e-08	-1.13033e-04	
2213	8.692417e-08	6.832508e-05	
2214	8.696417e-08	2.580979e-04	
2215	8.700417e-08	1.737964e-04	
2216	8.704417e-08	9.790548e-05	
2217	8.708417e-08	-1.37395e-04	
2218	8.712417e-08	2.712454e-04	
2219	8.716417e-08	7.585478e-04	
2220	8.720417e-08	7.171481e-04	
2221	8.724417e-08	2.218747e-05	
2222	8.728417e-08	-4.65382e-04	
2223	8.732417e-08	-4.36125e-04	
2224	8.736417e-08	-2.07533e-04	
2225	8.740417e-08	-1.62659e-04	
2226	8.744417e-08	-4.22191e-05	
2227	8.748417e-08	-5.75079e-05	
2228	8.752417e-08	1.285284e-05	
2229	8.756417e-08	-3.75905e-05	
2230	8.760417e-08	1.151646e-05	
2231	8.764417e-08	-3.27774e-05	
2232	8.768417e-08	2.314055e-05	
2233	8.772417e-08	-4.67485e-05	
2234	8.776417e-08	4.188399e-05	
2235	8.780417e-08	1.363745e-04	
2236	8.784417e-08	3.575073e-04	
2237	8.788417e-08	3.768060e-04	
2238	8.792417e-08	6.110013e-05	
2239	8.796417e-08	-8.91489e-04	
2240	8.800417e-08	-1.30338e-03	
2241	8.804417e-08	-5.45999e-04	
2242	8.808417e-08	-9.22016e-04	
2243	8.812417e-08	-9.76124e-05	
2244	8.816417e-08	6.482053e-04	
2245	8.820417e-08	2.713209e-04	
2246	8.824417e-08	1.690191e-04	
2247	8.828417e-08	1.094820e-05	
2248	8.832417e-08	-1.57695e-05	
2249	8.836417e-08	-1.16467e-04	
2250	8.840417e-08	-4.94293e-05	
2251	8.844417e-08	-9.08179e-05	
2252	8.848417e-08	5.648806e-05	
2253	8.852417e-08	4.196490e-05	
2254	8.856417e-08	4.951575e-05	
2255	8.860417e-08	-2.64343e-05	
2256	8.864417e-08	2.626849e-05	
2257	8.868417e-08	-2.63179e-05	
2258	8.872417e-08	2.816241e-05	

Index   time            cf              
--------------------------------------------------------------------------------
2259	8.876417e-08	-2.64157e-05	
2260	8.880417e-08	2.727871e-05	
2261	8.884417e-08	-2.56649e-05	
2262	8.888417e-08	2.720548e-05	
2263	8.892417e-08	-2.57883e-05	
2264	8.896417e-08	2.745362e-05	
2265	8.900417e-08	-2.37494e-05	
2266	8.904417e-08	2.637211e-05	
2267	8.908417e-08	-2.53518e-05	
2268	8.912417e-08	2.628290e-05	
2269	8.916417e-08	-2.67876e-05	
2270	8.920417e-08	2.240626e-05	
2271	8.924417e-08	-3.14810e-05	
2272	8.928417e-08	1.561525e-05	
2273	8.932417e-08	-2.13950e-05	
2274	8.936417e-08	9.714827e-05	
2275	8.940417e-08	9.203364e-05	
2276	8.944417e-08	1.077875e-04	
2277	8.948417e-08	1.615284e-05	
2278	8.952417e-08	5.622525e-05	
2279	8.956417e-08	-5.62452e-06	
2280	8.960417e-08	3.030306e-05	
2281	8.964417e-08	-3.92143e-05	
2282	8.968417e-08	-8.31203e-06	
2283	8.972417e-08	-7.14755e-05	
2284	8.976417e-08	-2.28561e-05	
2285	8.980417e-08	-6.98051e-05	
2286	8.984417e-08	-1.28578e-05	
2287	8.988417e-08	-5.36904e-05	
2288	8.992417e-08	1.243357e-05	
2289	8.996417e-08	-2.50383e-05	
2290	9.000417e-08	3.429261e-05	
2291	9.004417e-08	-2.58874e-05	
2292	9.008417e-08	1.970552e-05	
2293	9.012417e-08	-3.36741e-05	
2294	9.016417e-08	1.608558e-05	
2295	9.020417e-08	-3.27250e-05	
2296	9.024417e-08	1.545083e-05	
2297	9.028417e-08	-3.32670e-05	
2298	9.032417e-08	2.060719e-05	
2299	9.036417e-08	-2.55329e-05	
2300	9.040417e-08	2.193982e-05	
2301	9.044417e-08	-2.90648e-05	
2302	9.048417e-08	2.654329e-05	
2303	9.052417e-08	-1.23212e-05	
2304	9.056417e-08	5.000617e-05	
2305	9.060417e-08	1.427157e-05	
2306	9.064417e-08	6.739604e-05	
2307	9.068417e-08	-2.14255e-04	
2308	9.072417e-08	-6.72164e-04	
2309	9.076417e-08	-8.57811e-04	
2310	9.080417e-08	1.519802e-04	
2311	9.084417e-08	1.109888e-03	
2312	9.088417e-08	1.299230e-03	
2313	9.092417e-08	9.398692e-04	
2314	9.096417e-08	4.595991e-04	
2315	9.100417e-08	-4.18553e-05	
2316	9.104417e-08	-4.39756e-05	

Index   time            cf              
--------------------------------------------------------------------------------
2317	9.108417e-08	-2.68958e-05	
2318	9.112417e-08	1.627069e-05	
2319	9.116417e-08	-6.91618e-05	
2320	9.120417e-08	-1.74206e-05	
2321	9.124417e-08	-6.58233e-05	
2322	9.128417e-08	-2.69478e-05	
2323	9.132417e-08	-6.85217e-05	
2324	9.136417e-08	-4.47891e-06	
2325	9.140417e-08	-4.48920e-05	
2326	9.144417e-08	3.339720e-06	
2327	9.148417e-08	-4.08111e-05	
2328	9.152417e-08	1.647327e-05	
2329	9.156417e-08	-2.62672e-05	
2330	9.160417e-08	2.786888e-05	
2331	9.164417e-08	-2.58130e-05	
2332	9.168417e-08	2.385290e-05	
2333	9.172417e-08	-2.55707e-05	
2334	9.176417e-08	2.496460e-05	
2335	9.180417e-08	-2.48806e-05	
2336	9.184417e-08	2.178668e-05	
2337	9.188417e-08	-3.69934e-05	
2338	9.192417e-08	3.716050e-06	
2339	9.196417e-08	-5.60697e-05	
2340	9.200417e-08	-3.39571e-05	
2341	9.204417e-08	-3.39746e-05	
2342	9.208417e-08	4.356911e-04	
2343	9.212417e-08	8.929201e-04	
2344	9.216417e-08	1.065767e-03	
2345	9.220417e-08	9.670302e-04	
2346	9.224417e-08	9.724412e-04	
2347	9.228417e-08	8.570346e-04	
2348	9.232417e-08	8.270379e-04	
2349	9.236417e-08	6.380656e-04	
[...]

Index   time            cf              
--------------------------------------------------------------------------------
2897	1.142842e-07	9.773221e-04	
2898	1.143242e-07	1.001556e-03	
2899	1.143642e-07	9.386841e-04	
2900	1.144042e-07	9.223944e-04	
2901	1.144442e-07	7.603843e-04	
2902	1.144842e-07	5.923087e-04	
2903	1.145242e-07	3.126427e-04	
2904	1.145642e-07	1.780941e-04	
2905	1.146042e-07	3.245201e-04	
2906	1.146442e-07	5.222012e-04	
2907	1.146842e-07	3.657298e-04	
2908	1.147242e-07	3.331662e-04	
2909	1.147642e-07	2.312216e-04	
2910	1.148042e-07	1.749775e-04	
2911	1.148442e-07	4.363816e-05	
2912	1.148842e-07	1.130779e-05	
2913	1.149242e-07	-9.05268e-05	
2914	1.149642e-07	-1.45939e-04	
2915	1.150042e-07	-2.39819e-04	
2916	1.150442e-07	-4.66291e-05	
2917	1.150842e-07	1.563639e-04	
2918	1.151242e-07	2.846888e-04	
2919	1.151642e-07	1.601720e-04	
2920	1.152042e-07	6.753963e-05	
2921	1.152442e-07	-4.32813e-05	
2922	1.152842e-07	1.383364e-04	
2923	1.153242e-07	1.733791e-04	
2924	1.153642e-07	1.711060e-04	
2925	1.154042e-07	2.029546e-04	
2926	1.154442e-07	1.469459e-04	
2927	1.154842e-07	1.216670e-04	
2928	1.155242e-07	4.139496e-04	
2929	1.155642e-07	1.872754e-04	
2930	1.156042e-07	-5.09012e-04	
2931	1.156442e-07	-1.27038e-03	
2932	1.156842e-07	-1.59101e-03	
2933	1.157242e-07	-4.30824e-04	
2934	1.157642e-07	4.544484e-04	
2935	1.158042e-07	2.420646e-04	
2936	1.158442e-07	1.336309e-04	
2937	1.158842e-07	1.881847e-05	
2938	1.159242e-07	-2.76473e-05	
2939	1.159642e-07	-1.06260e-04	
2940	1.160042e-07	-6.26972e-05	
2941	1.160442e-07	-8.25656e-05	
2942	1.160842e-07	3.868023e-05	
2943	1.161242e-07	5.119247e-05	
2944	1.161642e-07	4.381716e-05	
2945	1.162042e-07	-1.76307e-05	
2946	1.162442e-07	1.678391e-05	
2947	1.162842e-07	-1.76734e-05	
2948	1.163242e-07	1.865485e-05	
2949	1.163642e-07	-1.78817e-05	
2950	1.164042e-07	1.852067e-05	
2951	1.164442e-07	-1.76214e-05	
2952	1.164842e-07	1.846557e-05	
2953	1.165242e-07	-1.77037e-05	
2954	1.165642e-07	1.829161e-05	

Index   time            cf              
--------------------------------------------------------------------------------
2955	1.166042e-07	-1.75428e-05	
2956	1.166442e-07	1.854093e-05	
2957	1.166842e-07	-1.73998e-05	
2958	1.167242e-07	1.804513e-05	
2959	1.167642e-07	-1.74096e-05	
2960	1.168042e-07	1.784721e-05	
2961	1.168442e-07	-1.82496e-05	
2962	1.168842e-07	1.741473e-05	
2963	1.169242e-07	-1.77631e-05	
2964	1.169642e-07	1.907496e-05	
2965	1.170042e-07	-1.60703e-05	
2966	1.170442e-07	1.992372e-05	
2967	1.170842e-07	-1.75816e-05	
2968	1.171242e-07	1.683934e-05	
2969	1.171642e-07	-1.90259e-05	
2970	1.172042e-07	1.736963e-05	
2971	1.172442e-07	-1.53237e-05	
2972	1.172842e-07	1.936908e-05	
2973	1.173242e-07	-1.77725e-05	
2974	1.173642e-07	1.787252e-05	
2975	1.174042e-07	-1.80103e-05	
2976	1.174442e-07	1.710121e-05	
2977	1.174842e-07	-1.80249e-05	
2978	1.175242e-07	1.781219e-05	
2979	1.175642e-07	-1.87200e-05	
2980	1.176042e-07	1.568471e-05	
2981	1.176442e-07	-1.90737e-05	
2982	1.176842e-07	1.658780e-05	
2983	1.177242e-07	-1.63225e-05	
2984	1.177642e-07	3.348940e-05	
2985	1.178042e-07	2.451494e-05	
2986	1.178442e-07	8.506532e-05	
2987	1.178842e-07	5.675795e-05	
2988	1.179242e-07	8.571466e-05	
2989	1.179642e-07	2.301694e-05	
2990	1.180042e-07	2.655658e-05	
2991	1.180442e-07	-1.09071e-05	
2992	1.180842e-07	2.567598e-05	
2993	1.181242e-07	-1.65827e-05	
2994	1.181642e-07	1.039071e-05	
2995	1.182042e-07	-2.56945e-05	
2996	1.182442e-07	8.414659e-06	
2997	1.182842e-07	-2.59973e-04	
2998	1.183242e-07	-7.07233e-04	
2999	1.183642e-07	-8.62805e-04	
3000	1.184042e-07	1.610484e-04	
3001	1.184442e-07	1.136169e-03	
3002	1.184842e-07	1.296599e-03	
3003	1.185242e-07	9.449119e-04	
3004	1.185642e-07	4.509276e-04	
3005	1.186042e-07	-2.24923e-05	
3006	1.186442e-07	-6.70917e-05	
3007	1.186842e-07	-4.19639e-05	
3008	1.187242e-07	-4.67941e-06	
3009	1.187642e-07	-7.85795e-05	
3010	1.188042e-07	-3.70526e-05	
3011	1.188442e-07	-6.90959e-05	
3012	1.188842e-07	-4.26390e-05	

Index   time            cf              
--------------------------------------------------------------------------------
3013	1.189242e-07	-6.76447e-05	
3014	1.189642e-07	-1.56346e-05	
3015	1.190042e-07	-3.89973e-05	
3016	1.190442e-07	-5.35264e-06	
3017	1.190842e-07	-3.41519e-05	
3018	1.191242e-07	6.922061e-06	
3019	1.191642e-07	-2.22626e-05	
3020	1.192042e-07	1.465110e-05	
3021	1.192442e-07	-2.11470e-05	
3022	1.192842e-07	1.535620e-05	
3023	1.193242e-07	-1.94872e-05	
3024	1.193642e-07	1.617664e-05	
3025	1.194042e-07	-1.90175e-05	
3026	1.194442e-07	1.571280e-05	
3027	1.194842e-07	-1.96630e-05	
3028	1.195242e-07	1.444767e-05	
3029	1.195642e-07	-2.34021e-05	
3030	1.196042e-07	1.058756e-05	
3031	1.196442e-07	4.487517e-06	
3032	1.196842e-07	8.814522e-05	
3033	1.197242e-07	8.489546e-05	
3034	1.197642e-07	6.497588e-05	
3035	1.198042e-07	-6.81028e-04	
3036	1.198442e-07	-1.83379e-03	
3037	1.198842e-07	-2.56631e-03	
3038	1.199242e-07	-2.63767e-03	
3039	1.199642e-07	-2.23011e-03	
3040	1.200042e-07	-1.02054e-03	
3041	1.200442e-07	-2.89671e-05	
3042	1.200842e-07	2.177359e-04	
3043	1.201242e-07	9.028868e-05	
3044	1.201642e-07	6.497952e-05	
3045	1.202042e-07	-2.42941e-05	
3046	1.202442e-07	-6.33278e-06	
3047	1.202842e-07	-1.45066e-05	
3048	1.203242e-07	2.153856e-05	
3049	1.203642e-07	-4.00496e-06	
3050	1.204042e-07	2.134220e-05	
3051	1.204442e-07	-3.13500e-05	
3052	1.204842e-07	-2.08872e-05	
3053	1.205242e-07	-7.44786e-05	
3054	1.205642e-07	-5.91529e-05	
3055	1.206042e-07	-1.12757e-04	
3056	1.206442e-07	-1.21091e-04	
3057	1.206842e-07	-2.59217e-04	
3058	1.207242e-07	-3.06388e-04	
3059	1.207642e-07	-2.02933e-04	
3060	1.208042e-07	-5.62825e-06	
3061	1.208442e-07	-3.95862e-05	
3062	1.208842e-07	8.566565e-04	
3063	1.209242e-07	2.696371e-03	
3064	1.209642e-07	3.649579e-03	
3065	1.210042e-07	3.607850e-03	
3066	1.210442e-07	3.652986e-03	
3067	1.210842e-07	3.253700e-03	
3068	1.211242e-07	2.490904e-03	
3069	1.211642e-07	1.656966e-03	
3070	1.212042e-07	1.357360e-03	

Index   time            cf              
--------------------------------------------------------------------------------
3071	1.212442e-07	2.426503e-03	
3072	1.212842e-07	3.007554e-03	
3073	1.213242e-07	2.517386e-03	
3074	1.213642e-07	2.171295e-03	
3075	1.214042e-07	1.845546e-03	
3076	1.214442e-07	1.689641e-03	
3077	1.214842e-07	1.427996e-03	
3078	1.215242e-07	1.207538e-03	
3079	1.215642e-07	1.061190e-03	
3080	1.216042e-07	1.085895e-03	
3081	1.216442e-07	9.131219e-04	
3082	1.216842e-07	7.128484e-04	
3083	1.217242e-07	5.031722e-04	
3084	1.217642e-07	4.113324e-04	
3085	1.218042e-07	2.805627e-04	
3086	1.218442e-07	2.407491e-04	
3087	1.218842e-07	1.505058e-04	
3088	1.219242e-07	1.419694e-04	
3089	1.219642e-07	7.529643e-05	
3090	1.220042e-07	8.470050e-05	
3091	1.220442e-07	3.395073e-05	
3092	1.220842e-07	5.620536e-05	
3093	1.221242e-07	1.414650e-05	
3094	1.221642e-07	4.170110e-05	
3095	1.222042e-07	1.932859e-06	
3096	1.222442e-07	3.026973e-05	
3097	1.222842e-07	-7.15747e-06	
3098	1.223242e-07	2.392335e-05	
3099	1.223642e-07	-1.24638e-05	
3100	1.224042e-07	2.009802e-05	
3101	1.224442e-07	-1.42591e-05	
3102	1.224842e-07	1.926245e-05	
3103	1.225242e-07	-1.40405e-05	
3104	1.225642e-07	1.998004e-05	
3105	1.226042e-07	-1.59527e-05	
3106	1.226442e-07	1.689656e-05	
3107	1.226842e-07	-1.76219e-05	
3108	1.227242e-07	1.646238e-05	
3109	1.227642e-07	-1.40248e-05	
3110	1.228042e-07	1.831754e-05	
3111	1.228442e-07	-1.66111e-05	
3112	1.228842e-07	1.692127e-05	
3113	1.229242e-07	-1.66327e-05	
3114	1.229642e-07	1.666032e-05	
3115	1.230042e-07	-1.62048e-05	
3116	1.230442e-07	1.773005e-05	
3117	1.230842e-07	-1.68549e-05	
3118	1.231242e-07	1.588404e-05	
3119	1.231642e-07	-1.59143e-05	
3120	1.232042e-07	1.775576e-05	
3121	1.232442e-07	-1.72433e-05	
3122	1.232842e-07	1.607965e-05	
3123	1.233242e-07	-1.76841e-05	
3124	1.233642e-07	1.448123e-05	
3125	1.234042e-07	-1.85870e-05	
3126	1.234442e-07	2.272668e-05	
3127	1.234842e-07	-7.72607e-06	
3128	1.235242e-07	1.622551e-05	

Index   time            cf              
--------------------------------------------------------------------------------
3129	1.235642e-07	-1.42927e-05	
3130	1.236042e-07	3.079811e-05	
3131	1.236442e-07	1.817925e-05	
3132	1.236842e-07	8.536060e-05	
3133	1.237242e-07	8.500705e-05	
3134	1.237642e-07	1.127208e-04	
3135	1.238042e-07	-1.69025e-04	
3136	1.238442e-07	-6.37594e-04	
3137	1.238842e-07	-8.80852e-04	
3138	1.239242e-07	4.002510e-06	
3139	1.239642e-07	1.194466e-03	
3140	1.240042e-07	1.968400e-03	
3141	1.240442e-07	2.119197e-03	
3142	1.240842e-07	1.683625e-03	
3143	1.241242e-07	-5.49263e-04	
3144	1.241642e-07	-3.74699e-03	
3145	1.242042e-07	-6.03825e-03	
3146	1.242442e-07	-7.81914e-03	
3147	1.242842e-07	-9.72571e-03	
3148	1.243242e-07	-1.20873e-02	
3149	1.243642e-07	-1.65761e-02	
3150	1.244042e-07	-2.46769e-02	
3151	1.244442e-07	-3.28708e-02	
3152	1.244842e-07	-2.55802e-02	
3153	1.245242e-07	1.854119e-02	
3154	1.245642e-07	1.128006e-01	
3155	1.246042e-07	2.552952e-01	
3156	1.246442e-07	4.357559e-01	
3157	1.246842e-07	6.406741e-01	
3158	1.247242e-07	8.457339e-01	
3159	1.247642e-07	1.029352e+00	
3160	1.248042e-07	1.174287e+00	
3161	1.248442e-07	1.266201e+00	
3162	1.248842e-07	1.336659e+00	
3163	1.249242e-07	1.386204e+00	
3164	1.249642e-07	1.397232e+00	
3165	1.250042e-07	1.398513e+00	
3166	1.250442e-07	1.399022e+00	
3167	1.250842e-07	1.399299e+00	
3168	1.251242e-07	1.399505e+00	
3169	1.251642e-07	1.399601e+00	
3170	1.252042e-07	1.399750e+00	
3171	1.252442e-07	1.400203e+00	
3172	1.252842e-07	1.400820e+00	
3173	1.253242e-07	1.400953e+00	
3174	1.253642e-07	1.400956e+00	
3175	1.254042e-07	1.400926e+00	
3176	1.254442e-07	1.400943e+00	
3177	1.254842e-07	1.400873e+00	
3178	1.255242e-07	1.400793e+00	
3179	1.255642e-07	1.400569e+00	
3180	1.256042e-07	1.400359e+00	
3181	1.256442e-07	1.400143e+00	
3182	1.256842e-07	1.400328e+00	
3183	1.257242e-07	1.400475e+00	
3184	1.257642e-07	1.400402e+00	
3185	1.258042e-07	1.400306e+00	
3186	1.258442e-07	1.400297e+00	

Index   time            cf              
--------------------------------------------------------------------------------
3187	1.258842e-07	1.400197e+00	
3188	1.259242e-07	1.400160e+00	
3189	1.259642e-07	1.400080e+00	
3190	1.260042e-07	1.400079e+00	
3191	1.260442e-07	1.400034e+00	
3192	1.260842e-07	1.400065e+00	
3193	1.261242e-07	1.400031e+00	
3194	1.261642e-07	1.400049e+00	
3195	1.262042e-07	1.400000e+00	
3196	1.262442e-07	1.399989e+00	
3197	1.262842e-07	1.399882e+00	
3198	1.263242e-07	1.399812e+00	
3199	1.263642e-07	1.399698e+00	
3200	1.264042e-07	1.399694e+00	
3201	1.264442e-07	1.399738e+00	
3202	1.264842e-07	1.400174e+00	
3203	1.265242e-07	1.401376e+00	
3204	1.265642e-07	1.402798e+00	
3205	1.266042e-07	1.404239e+00	
3206	1.266442e-07	1.409288e+00	
3207	1.266842e-07	1.416912e+00	
3208	1.267242e-07	1.420337e+00	
3209	1.267642e-07	1.412408e+00	
3210	1.268042e-07	1.395523e+00	
3211	1.268442e-07	1.387840e+00	
3212	1.268842e-07	1.389708e+00	
3213	1.269242e-07	1.392729e+00	
3214	1.269642e-07	1.395180e+00	
3215	1.270042e-07	1.396710e+00	
3216	1.270442e-07	1.397711e+00	
3217	1.270842e-07	1.398273e+00	
3218	1.271242e-07	1.398684e+00	
3219	1.271642e-07	1.398902e+00	
3220	1.272042e-07	1.399108e+00	
3221	1.272442e-07	1.399203e+00	
3222	1.272842e-07	1.399331e+00	
3223	1.273242e-07	1.399375e+00	
3224	1.273642e-07	1.399467e+00	
3225	1.274042e-07	1.399486e+00	
3226	1.274442e-07	1.399559e+00	
3227	1.274842e-07	1.399563e+00	
3228	1.275242e-07	1.399625e+00	
3229	1.275642e-07	1.399621e+00	
3230	1.276042e-07	1.399675e+00	
3231	1.276442e-07	1.399664e+00	
3232	1.276842e-07	1.399714e+00	
3233	1.277242e-07	1.399699e+00	
3234	1.277642e-07	1.399745e+00	
3235	1.278042e-07	1.399727e+00	
3236	1.278442e-07	1.399770e+00	
3237	1.278842e-07	1.399751e+00	
3238	1.279242e-07	1.399792e+00	
3239	1.279642e-07	1.399770e+00	
3240	1.280042e-07	1.399810e+00	
3241	1.280442e-07	1.399787e+00	
3242	1.280842e-07	1.399825e+00	
3243	1.281242e-07	1.399801e+00	
3244	1.281642e-07	1.399838e+00	

Index   time            cf              
--------------------------------------------------------------------------------
3245	1.282042e-07	1.399813e+00	
3246	1.282442e-07	1.399850e+00	
3247	1.282842e-07	1.399824e+00	
3248	1.283242e-07	1.399860e+00	
3249	1.283642e-07	1.399834e+00	
3250	1.284042e-07	1.399869e+00	
3251	1.284442e-07	1.399842e+00	
3252	1.284842e-07	1.399877e+00	
3253	1.285242e-07	1.399850e+00	
3254	1.285642e-07	1.399884e+00	
3255	1.286042e-07	1.399857e+00	
3256	1.286442e-07	1.399891e+00	
3257	1.286842e-07	1.399863e+00	
3258	1.287242e-07	1.399897e+00	
3259	1.287642e-07	1.399869e+00	
3260	1.288042e-07	1.399902e+00	
3261	1.288442e-07	1.399874e+00	
3262	1.288842e-07	1.399907e+00	
3263	1.289242e-07	1.399879e+00	
3264	1.289642e-07	1.399912e+00	
3265	1.290042e-07	1.399883e+00	
3266	1.290442e-07	1.399916e+00	
3267	1.290842e-07	1.399888e+00	
3268	1.291242e-07	1.399920e+00	
3269	1.291642e-07	1.399891e+00	
3270	1.292042e-07	1.399923e+00	
3271	1.292442e-07	1.399895e+00	
3272	1.292842e-07	1.399927e+00	
3273	1.293242e-07	1.399898e+00	
3274	1.293642e-07	1.399930e+00	
3275	1.294042e-07	1.399901e+00	
3276	1.294442e-07	1.399933e+00	
3277	1.294842e-07	1.399904e+00	
3278	1.295242e-07	1.399935e+00	
3279	1.295642e-07	1.399907e+00	
3280	1.296042e-07	1.399938e+00	
3281	1.296442e-07	1.399909e+00	
3282	1.296842e-07	1.399940e+00	
3283	1.297242e-07	1.399911e+00	
3284	1.297642e-07	1.399942e+00	
3285	1.298042e-07	1.399914e+00	
3286	1.298442e-07	1.399945e+00	
3287	1.298842e-07	1.399916e+00	
3288	1.299242e-07	1.399947e+00	
3289	1.299642e-07	1.399918e+00	
3290	1.300042e-07	1.399948e+00	
3291	1.300442e-07	1.399920e+00	
3292	1.300842e-07	1.399950e+00	
3293	1.301242e-07	1.399921e+00	
3294	1.301642e-07	1.399952e+00	
3295	1.302042e-07	1.399923e+00	
3296	1.302442e-07	1.399954e+00	
3297	1.302842e-07	1.399925e+00	
3298	1.303242e-07	1.399955e+00	
3299	1.303642e-07	1.399926e+00	
3300	1.304042e-07	1.399956e+00	
3301	1.304442e-07	1.399928e+00	
3302	1.304842e-07	1.399958e+00	

Index   time            cf              
--------------------------------------------------------------------------------
3303	1.305242e-07	1.399929e+00	
3304	1.305642e-07	1.399959e+00	
3305	1.306042e-07	1.399930e+00	
3306	1.306442e-07	1.399960e+00	
3307	1.306842e-07	1.399932e+00	
3308	1.307242e-07	1.399962e+00	
3309	1.307642e-07	1.399933e+00	
3310	1.308042e-07	1.399963e+00	
3311	1.308442e-07	1.399934e+00	
3312	1.308842e-07	1.399964e+00	
3313	1.309242e-07	1.399935e+00	
3314	1.309642e-07	1.399965e+00	
3315	1.310042e-07	1.399936e+00	
3316	1.310442e-07	1.399966e+00	
3317	1.310842e-07	1.399937e+00	
3318	1.311242e-07	1.399967e+00	
3319	1.311642e-07	1.399938e+00	
3320	1.312042e-07	1.399968e+00	
3321	1.312442e-07	1.399939e+00	
3322	1.312842e-07	1.399969e+00	
3323	1.313242e-07	1.399940e+00	
3324	1.313642e-07	1.399970e+00	
3325	1.314042e-07	1.399941e+00	
3326	1.314442e-07	1.399970e+00	
3327	1.314842e-07	1.399942e+00	
3328	1.315242e-07	1.399971e+00	
3329	1.315642e-07	1.399943e+00	
3330	1.316042e-07	1.399972e+00	
3331	1.316442e-07	1.399943e+00	
3332	1.316842e-07	1.399973e+00	
3333	1.317242e-07	1.399944e+00	
3334	1.317642e-07	1.399973e+00	
3335	1.318042e-07	1.399945e+00	
3336	1.318442e-07	1.399974e+00	
3337	1.318842e-07	1.399946e+00	
3338	1.319242e-07	1.399975e+00	
3339	1.319642e-07	1.399946e+00	
3340	1.320042e-07	1.399975e+00	
3341	1.320442e-07	1.399947e+00	
3342	1.320842e-07	1.399976e+00	
3343	1.321242e-07	1.399948e+00	
3344	1.321642e-07	1.399977e+00	
3345	1.322042e-07	1.399948e+00	
3346	1.322442e-07	1.399977e+00	
3347	1.322842e-07	1.399949e+00	
3348	1.323242e-07	1.399978e+00	
3349	1.323642e-07	1.399950e+00	
3350	1.324042e-07	1.399978e+00	
3351	1.324442e-07	1.399950e+00	
3352	1.324842e-07	1.399979e+00	
3353	1.325242e-07	1.399951e+00	
3354	1.325642e-07	1.399979e+00	
3355	1.326042e-07	1.399951e+00	
3356	1.326442e-07	1.399980e+00	
3357	1.326842e-07	1.399952e+00	
3358	1.327242e-07	1.399980e+00	
3359	1.327642e-07	1.399952e+00	
3360	1.328042e-07	1.399981e+00	

Index   time            cf              
--------------------------------------------------------------------------------
3361	1.328442e-07	1.399953e+00	
3362	1.328842e-07	1.399981e+00	
3363	1.329242e-07	1.399953e+00	
3364	1.329642e-07	1.399982e+00	
3365	1.330042e-07	1.399954e+00	
3366	1.330442e-07	1.399982e+00	
3367	1.330842e-07	1.399954e+00	
3368	1.331242e-07	1.399983e+00	
3369	1.331642e-07	1.399955e+00	
3370	1.332042e-07	1.399983e+00	
3371	1.332442e-07	1.399955e+00	
3372	1.332842e-07	1.399983e+00	
3373	1.333242e-07	1.399956e+00	
3374	1.333642e-07	1.399984e+00	
3375	1.334042e-07	1.399956e+00	
3376	1.334442e-07	1.399984e+00	
3377	1.334842e-07	1.399956e+00	
3378	1.335242e-07	1.399984e+00	
3379	1.335642e-07	1.399957e+00	
3380	1.336042e-07	1.399985e+00	
3381	1.336442e-07	1.399957e+00	
3382	1.336842e-07	1.399985e+00	
3383	1.337242e-07	1.399958e+00	
3384	1.337642e-07	1.399986e+00	
3385	1.338042e-07	1.399958e+00	
3386	1.338442e-07	1.399986e+00	
3387	1.338842e-07	1.399958e+00	
3388	1.339242e-07	1.399986e+00	
3389	1.339642e-07	1.399959e+00	
3390	1.340042e-07	1.399986e+00	
3391	1.340442e-07	1.399959e+00	
3392	1.340842e-07	1.399987e+00	
3393	1.341242e-07	1.399959e+00	
3394	1.341642e-07	1.399987e+00	
3395	1.342042e-07	1.399960e+00	
3396	1.342442e-07	1.399987e+00	
3397	1.342842e-07	1.399960e+00	
3398	1.343242e-07	1.399988e+00	
3399	1.343642e-07	1.399960e+00	
3400	1.344042e-07	1.399988e+00	
3401	1.344442e-07	1.399961e+00	
3402	1.344842e-07	1.399988e+00	
3403	1.345242e-07	1.399961e+00	
3404	1.345642e-07	1.399988e+00	
3405	1.346042e-07	1.399961e+00	
3406	1.346442e-07	1.399989e+00	
3407	1.346842e-07	1.399962e+00	
3408	1.347242e-07	1.399989e+00	
3409	1.347642e-07	1.399962e+00	
3410	1.348042e-07	1.399989e+00	
3411	1.348442e-07	1.399962e+00	
3412	1.348842e-07	1.399989e+00	
3413	1.349242e-07	1.399962e+00	
3414	1.349642e-07	1.399990e+00	
3415	1.350000e-07	1.399963e+00	
plbr                =  3.384218e-06 from=  1.000000e-09 to=  5.900546e-08
plar                =  2.606591e-04 from=  6.100000e-08 to=  9.000417e-08
phbr                =  4.496504e-05 from=  1.000000e-09 to=  5.900546e-08
phar                =  1.096164e-05 from=  6.100000e-08 to=  9.000417e-08
ds1.0               =  1.400000e+00
ds1.1               =  1.399997e+00
ds1.2               =  1.400001e+00
ds1.3               =  2.030034e-08
ds1.4               =  -1.375717e-06
ds1.5               =  2.867823e-08
ds1.6               =  1.034869e-07
ds1.7               =  2.347266e-07
ds1.8               =  5.379118e-07
ds1.9               =  6.972517e-08
ds1.10              =  1.036385e-07
ds1.11              =  3.520932e-08
ds1.12              =  9.051030e-08
ds1.13              =  -1.101236e-06
ds1.14              =  -7.096734e-08
ds1.15              =  4.184590e-07
ds2.0               =  1.399999e+00
ds2.1               =  1.399999e+00
ds2.2               =  1.400000e+00
ds2.3               =  2.958727e-09
ds2.4               =  2.697134e-07
ds2.5               =  5.111736e-07
ds2.6               =  6.366385e-08
ds2.7               =  3.212551e-07
ds2.8               =  1.499910e-07
ds2.9               =  2.570797e-08
ds2.10              =  -1.996826e-07
ds2.11              =  -1.434133e-07
ds2.12              =  9.543537e-09
ds2.13              =  8.312680e-08
ds2.14              =  3.952853e-08
ds2.15              =  -3.816530e-08
dm.0                =  -8.316274e-07
dm.1                =  -4.975689e-07
dm.2                =  1.400000e+00
dm.3                =  1.400000e+00
dm.4                =  -5.154077e-08
dm.5                =  -8.791496e-09
dm.6                =  -8.932809e-08
dm.7                =  -1.929941e-08
dm.8                =  1.336557e-07
dm.9                =  -3.655510e-09
dm.10               =  -4.539193e-08
dm.11               =  -1.471893e-07
dm.12               =  1.253394e-07
dm.13               =  -4.292058e-08
dm.14               =  3.302497e-08
dm.15               =  2.518801e-07
dm.16               =  -1.454432e-07
dm.17               =  2.277195e-07
dm.18               =  4.162657e-08
dm.19               =  -2.151950e-07
Note: No ".plot", ".print", or ".fourier" lines; no simulations run
