
Compatibility modes selected: hs a

Warning: m=xx on .subckt line will override multiplier m hierarchy!


Circuit: test netlist

option SCALE: Scale is set to 1e-06 for instance and model parameters
Warning: Model issue on line 153 :
  .model sky130_fd_pr__res_generic_po r tc1r=    8.916000000000000e-04     ...
unrecognized parameter (-tol_poly) - ignored
unrecognized parameter (/) - ignored
unrecognized parameter (-poly_dw) - ignored
unrecognized parameter (/) - ignored
Doing analysis at TEMP = 27.000000 and TNOM = 27.000000

Using transient initial conditions

No. of Data Rows : 8191
                                  test netlist
                                  Transient Analysis  Tue Nov 21 19:48:40  2023
--------------------------------------------------------------------------------
Index   time            cf              
--------------------------------------------------------------------------------
0	4.000000e-13	7.266533e-01	
1	4.109008e-13	7.287832e-01	
2	4.327023e-13	7.311905e-01	
3	4.763053e-13	7.316895e-01	
4	5.635113e-13	7.315367e-01	
5	7.379234e-13	7.312870e-01	
6	1.086748e-12	7.307859e-01	
7	1.784396e-12	7.297879e-01	
8	3.179692e-12	7.278496e-01	
9	5.970286e-12	7.241465e-01	
10	1.155147e-11	7.176661e-01	
11	2.271385e-11	7.089830e-01	
12	3.363327e-11	7.055796e-01	
13	4.000000e-11	7.056065e-01	
14	4.133096e-11	7.057916e-01	
15	4.399289e-11	7.062403e-01	
16	4.931673e-11	7.075503e-01	
17	5.996443e-11	7.107845e-01	
18	8.125982e-11	7.115649e-01	
19	1.049557e-10	6.995071e-01	
20	1.393055e-10	6.712692e-01	
21	1.793055e-10	6.363498e-01	
22	2.193055e-10	6.018703e-01	
23	2.593055e-10	5.692515e-01	
24	2.993055e-10	5.384479e-01	
25	3.393055e-10	5.093978e-01	
26	3.793055e-10	4.812075e-01	
27	4.193055e-10	4.524197e-01	
28	4.593055e-10	4.206617e-01	
29	4.873897e-10	3.947369e-01	
30	5.181020e-10	3.600216e-01	
31	5.581020e-10	2.986575e-01	
32	5.981020e-10	2.132726e-01	
33	6.381020e-10	1.156278e-01	
34	6.781020e-10	4.443124e-02	
35	7.181020e-10	1.459503e-02	
36	7.581020e-10	6.887505e-03	
37	7.981020e-10	4.860591e-03	
38	8.381020e-10	3.812269e-03	
39	8.781020e-10	3.050338e-03	
40	9.181020e-10	2.441782e-03	
41	9.581020e-10	5.151396e-03	
42	9.981020e-10	3.132615e-03	
43	1.038102e-09	7.990245e-04	
44	1.078102e-09	8.654493e-04	
45	1.118102e-09	6.252850e-06	
46	1.158102e-09	-6.04826e-05	
47	1.198102e-09	1.666764e-04	
48	1.238102e-09	-3.35125e-04	
49	1.278102e-09	2.573173e-05	
50	1.318102e-09	4.620760e-04	
51	1.358102e-09	2.754736e-04	
52	1.398102e-09	1.722524e-04	
53	1.438102e-09	1.585855e-04	
54	1.478102e-09	1.599536e-04	

Index   time            cf              
--------------------------------------------------------------------------------
55	1.518102e-09	1.383578e-04	
56	1.558102e-09	1.358563e-04	
57	1.598102e-09	1.317739e-04	
58	1.638102e-09	1.283482e-04	
59	1.678102e-09	6.442299e-05	
60	1.718102e-09	3.769313e-04	
61	1.758102e-09	1.234988e-03	
62	1.798102e-09	-4.51976e-03	
63	1.838102e-09	-4.51776e-03	
64	1.878102e-09	6.494273e-04	
65	1.918102e-09	5.605263e-05	
66	1.958102e-09	1.500165e-04	
67	1.998102e-09	1.070695e-04	
68	2.038102e-09	1.288481e-04	
69	2.078102e-09	1.248253e-04	
70	2.118102e-09	1.333567e-04	
71	2.158102e-09	1.354753e-04	
72	2.198102e-09	7.374035e-05	
73	2.238102e-09	-9.60948e-05	
74	2.278102e-09	-2.56146e-04	
75	2.318102e-09	-1.17648e-04	
76	2.358102e-09	8.506863e-05	
77	2.398102e-09	5.486087e-05	
78	2.438102e-09	3.314982e-04	
79	2.478102e-09	8.700536e-04	
80	2.518102e-09	1.185150e-03	
81	2.558102e-09	1.272654e-03	
82	2.598102e-09	1.126972e-03	
83	2.638102e-09	9.514707e-04	
84	2.678102e-09	7.693786e-04	
85	2.718102e-09	5.290450e-04	
86	2.758102e-09	3.596732e-04	
87	2.798102e-09	2.494108e-04	
88	2.838102e-09	6.996731e-05	
89	2.878102e-09	-7.37803e-05	
90	2.918102e-09	6.094365e-05	
91	2.958102e-09	1.156407e-04	
92	2.998102e-09	7.445967e-05	
93	3.038102e-09	9.537982e-05	
94	3.078102e-09	8.302733e-05	
95	3.118102e-09	1.081175e-04	
96	3.158102e-09	1.257589e-04	
97	3.198102e-09	-3.98103e-04	
98	3.238102e-09	1.633960e-03	
99	3.278102e-09	5.577574e-03	
100	3.318102e-09	1.380650e-03	
101	3.358102e-09	-4.01218e-04	
102	3.398102e-09	2.954619e-04	
103	3.438102e-09	-1.07249e-05	
104	3.478102e-09	2.289764e-04	
105	3.518102e-09	-1.15588e-04	
106	3.558102e-09	-6.09027e-04	
107	3.598102e-09	-1.12904e-03	
108	3.638102e-09	4.050612e-04	
109	3.678102e-09	1.109062e-03	
110	3.718102e-09	7.033424e-04	
111	3.758102e-09	7.395910e-04	
112	3.798102e-09	9.911764e-05	

Index   time            cf              
--------------------------------------------------------------------------------
113	3.838102e-09	-1.35868e-03	
114	3.878102e-09	-2.79124e-03	
115	3.918102e-09	-3.06495e-03	
116	3.958102e-09	-1.06706e-03	
117	3.998102e-09	3.678189e-04	
118	4.038102e-09	2.435586e-04	
119	4.078102e-09	1.402438e-04	
120	4.118102e-09	9.427745e-05	
121	4.158102e-09	8.210178e-05	
122	4.198102e-09	6.865562e-05	
123	4.238102e-09	7.002969e-05	
124	4.278102e-09	6.374507e-05	
125	4.318102e-09	6.691640e-05	
126	4.358102e-09	6.261268e-05	
127	4.398102e-09	6.559548e-05	
128	4.438102e-09	6.216647e-05	
129	4.478102e-09	6.470809e-05	
130	4.518102e-09	6.185690e-05	
131	4.558102e-09	6.398917e-05	
132	4.598102e-09	6.158069e-05	
133	4.638102e-09	6.337348e-05	
134	4.678102e-09	6.131688e-05	
135	4.718102e-09	6.283558e-05	
136	4.758102e-09	6.106030e-05	
137	4.798102e-09	6.235623e-05	
138	4.838102e-09	6.080243e-05	
139	4.878102e-09	6.191150e-05	
140	4.918102e-09	6.052275e-05	
141	4.958102e-09	6.146056e-05	
142	4.998102e-09	6.017001e-05	
143	5.038102e-09	6.091497e-05	
144	5.078102e-09	5.961498e-05	
145	5.118102e-09	6.006757e-05	
146	5.158102e-09	5.855174e-05	
147	5.198102e-09	5.846820e-05	
148	5.238102e-09	5.636543e-05	
149	5.278102e-09	5.532305e-05	
150	5.318102e-09	5.213564e-05	
151	5.358102e-09	4.969929e-05	
152	5.398102e-09	4.515780e-05	
153	5.438102e-09	4.144288e-05	
154	5.478102e-09	3.621352e-05	
155	5.518102e-09	3.274334e-05	
156	5.558102e-09	3.017000e-05	
157	5.598102e-09	3.559798e-05	
158	5.638102e-09	4.781811e-05	
159	5.678102e-09	6.044348e-05	
160	5.718102e-09	6.473098e-05	
161	5.758102e-09	6.574099e-05	
162	5.798102e-09	6.402713e-05	
163	5.838102e-09	6.260860e-05	
164	5.878102e-09	5.879659e-05	
165	5.918102e-09	5.414470e-05	
166	5.958102e-09	4.587829e-05	
167	5.998102e-09	3.632656e-05	
168	6.038102e-09	2.471416e-05	
169	6.078102e-09	1.633848e-05	
170	6.118102e-09	1.877348e-05	

Index   time            cf              
--------------------------------------------------------------------------------
171	6.158102e-09	4.248343e-05	
172	6.198102e-09	6.431527e-05	
173	6.238102e-09	6.951764e-05	
174	6.278102e-09	6.483830e-05	
175	6.318102e-09	5.703168e-05	
176	6.358102e-09	4.302898e-05	
177	6.398102e-09	2.630094e-05	
178	6.438102e-09	1.043512e-05	
179	6.478102e-09	1.244280e-05	
180	6.518102e-09	4.173888e-05	
181	6.558102e-09	6.515950e-05	
182	6.598102e-09	5.875908e-05	
183	6.638102e-09	4.131275e-05	
184	6.678102e-09	1.714191e-05	
185	6.718102e-09	4.065028e-06	
186	6.758102e-09	3.592295e-05	
187	6.798102e-09	7.985045e-05	
188	6.838102e-09	7.135480e-05	
189	6.878102e-09	2.344131e-06	
190	6.918102e-09	-1.24493e-04	
191	6.958102e-09	-2.34252e-04	
192	6.998102e-09	-1.27002e-04	
193	7.038102e-09	1.003040e-04	
194	7.078102e-09	1.356684e-04	
195	7.118102e-09	-4.73454e-05	
196	7.158102e-09	-3.55003e-04	
197	7.198102e-09	-5.49326e-04	
198	7.238102e-09	-2.32129e-04	
199	7.278102e-09	1.041506e-04	
200	7.318102e-09	7.416518e-05	
201	7.358102e-09	-5.31538e-05	
202	7.398102e-09	-5.00084e-05	
203	7.438102e-09	1.055212e-04	
204	7.478102e-09	6.194828e-05	
205	7.518102e-09	-2.67462e-04	
206	7.558102e-09	-3.37987e-04	
207	7.598102e-09	2.163827e-06	
208	7.638102e-09	8.063420e-05	
209	7.678102e-09	2.908295e-05	
210	7.718102e-09	5.363886e-05	
211	7.758102e-09	3.583069e-05	
212	7.798102e-09	4.466772e-05	
213	7.838102e-09	3.844282e-05	
214	7.878102e-09	4.142447e-05	
215	7.918102e-09	3.934235e-05	
216	7.958102e-09	4.013167e-05	
217	7.998102e-09	3.955689e-05	
218	8.038102e-09	3.951998e-05	
219	8.078102e-09	3.951427e-05	
220	8.118102e-09	3.918042e-05	
221	8.158102e-09	3.936800e-05	
222	8.198102e-09	3.891257e-05	
223	8.238102e-09	3.919255e-05	
224	8.278102e-09	3.867650e-05	
225	8.318102e-09	3.900351e-05	
226	8.358102e-09	3.845346e-05	
227	8.398102e-09	3.880753e-05	
228	8.438102e-09	3.823543e-05	

Index   time            cf              
--------------------------------------------------------------------------------
229	8.478102e-09	3.860727e-05	
230	8.518102e-09	3.801943e-05	
231	8.558102e-09	3.840386e-05	
232	8.598102e-09	3.780393e-05	
233	8.638102e-09	3.819800e-05	
234	8.678102e-09	3.758833e-05	
235	8.718102e-09	3.798986e-05	
236	8.758102e-09	3.737232e-05	
237	8.798102e-09	3.777973e-05	
238	8.838102e-09	3.715569e-05	
239	8.878102e-09	3.756780e-05	
240	8.918102e-09	3.693833e-05	
241	8.958102e-09	3.735422e-05	
242	8.998102e-09	3.672016e-05	
243	9.038102e-09	3.713911e-05	
244	9.078102e-09	3.650113e-05	
245	9.118102e-09	3.692259e-05	
246	9.158102e-09	3.628121e-05	
247	9.198102e-09	3.670474e-05	
248	9.238102e-09	3.606040e-05	
249	9.278102e-09	3.648567e-05	
250	9.318102e-09	3.583869e-05	
251	9.358102e-09	3.626543e-05	
252	9.398102e-09	3.561609e-05	
253	9.438102e-09	3.604410e-05	
254	9.478102e-09	3.539262e-05	
255	9.518102e-09	3.582174e-05	
256	9.558102e-09	3.516830e-05	
257	9.598102e-09	3.559841e-05	
258	9.638102e-09	3.494316e-05	
259	9.678102e-09	3.537416e-05	
260	9.718102e-09	3.471723e-05	
261	9.758102e-09	3.514906e-05	
262	9.798102e-09	3.449059e-05	
263	9.838102e-09	3.492313e-05	
264	9.878102e-09	3.426310e-05	
265	9.918102e-09	3.469650e-05	
266	9.958102e-09	3.403509e-05	
267	9.998102e-09	3.446908e-05	
268	1.003810e-08	3.380633e-05	
269	1.007810e-08	3.424105e-05	
270	1.011810e-08	3.357698e-05	
271	1.015810e-08	3.401240e-05	
272	1.019810e-08	3.334708e-05	
273	1.023810e-08	3.378317e-05	
274	1.027810e-08	3.311665e-05	
275	1.031810e-08	3.355342e-05	
276	1.035810e-08	3.288574e-05	
277	1.039810e-08	3.332319e-05	
278	1.043810e-08	3.265439e-05	
279	1.047810e-08	3.309252e-05	
280	1.051810e-08	3.242263e-05	
281	1.055810e-08	3.286145e-05	
282	1.059810e-08	3.219052e-05	
283	1.063810e-08	3.263004e-05	
284	1.067810e-08	3.195809e-05	
285	1.071810e-08	3.239832e-05	
286	1.075810e-08	3.172538e-05	

Index   time            cf              
--------------------------------------------------------------------------------
287	1.079810e-08	3.216633e-05	
288	1.083810e-08	3.149244e-05	
289	1.087810e-08	3.193411e-05	
290	1.091810e-08	3.125929e-05	
291	1.095810e-08	3.170171e-05	
292	1.099810e-08	3.102599e-05	
293	1.103810e-08	3.146916e-05	
294	1.107810e-08	3.079258e-05	
295	1.111810e-08	3.123651e-05	
296	1.115810e-08	3.055908e-05	
297	1.119810e-08	3.100379e-05	
298	1.123810e-08	3.032554e-05	
299	1.127810e-08	3.077104e-05	
300	1.131810e-08	3.009200e-05	
301	1.135810e-08	3.053831e-05	
302	1.139810e-08	2.985850e-05	
303	1.143810e-08	3.030562e-05	
304	1.147810e-08	2.962507e-05	
305	1.151810e-08	3.007302e-05	
306	1.155810e-08	2.939175e-05	
307	1.159810e-08	2.984054e-05	
308	1.163810e-08	2.915857e-05	
309	1.167810e-08	2.960822e-05	
310	1.171810e-08	2.892558e-05	
311	1.175810e-08	2.937609e-05	
312	1.179810e-08	2.869281e-05	
313	1.183810e-08	2.914420e-05	
314	1.187810e-08	2.846028e-05	
315	1.191810e-08	2.891256e-05	
316	1.195810e-08	2.822805e-05	
317	1.199810e-08	2.868123e-05	
318	1.203810e-08	2.799613e-05	
319	1.207810e-08	2.845022e-05	
320	1.211810e-08	2.776457e-05	
321	1.215810e-08	2.821958e-05	
322	1.219810e-08	2.753339e-05	
323	1.223810e-08	2.798933e-05	
324	1.227810e-08	2.730263e-05	
325	1.231810e-08	2.775952e-05	
326	1.235810e-08	2.707231e-05	
327	1.239810e-08	2.753016e-05	
328	1.243810e-08	2.684248e-05	
329	1.247810e-08	2.730129e-05	
330	1.251810e-08	2.661316e-05	
331	1.255810e-08	2.707294e-05	
332	1.259810e-08	2.638438e-05	
333	1.263810e-08	2.684514e-05	
334	1.267810e-08	2.615616e-05	
335	1.271810e-08	2.661792e-05	
336	1.275810e-08	2.592855e-05	
337	1.279810e-08	2.639130e-05	
338	1.283810e-08	2.570155e-05	
339	1.287810e-08	2.616532e-05	
340	1.291810e-08	2.547521e-05	
341	1.295810e-08	2.593999e-05	
342	1.299810e-08	2.524955e-05	
343	1.303810e-08	2.571536e-05	
344	1.307810e-08	2.502460e-05	

Index   time            cf              
--------------------------------------------------------------------------------
345	1.311810e-08	2.549144e-05	
346	1.315810e-08	2.480038e-05	
347	1.319810e-08	2.526825e-05	
348	1.323810e-08	2.457691e-05	
349	1.327810e-08	2.504583e-05	
350	1.331810e-08	2.435422e-05	
351	1.335810e-08	2.482420e-05	
352	1.339810e-08	2.413234e-05	
353	1.343810e-08	2.460338e-05	
354	1.347810e-08	2.391128e-05	
355	1.351810e-08	2.438339e-05	
356	1.355810e-08	2.369108e-05	
357	1.359810e-08	2.416426e-05	
358	1.363810e-08	2.347175e-05	
359	1.367810e-08	2.394601e-05	
360	1.371810e-08	2.325331e-05	
361	1.375810e-08	2.372865e-05	
362	1.379810e-08	2.303578e-05	
363	1.383810e-08	2.351222e-05	
364	1.387810e-08	2.281919e-05	
365	1.391810e-08	2.329672e-05	
366	1.395810e-08	2.260356e-05	
367	1.399810e-08	2.308219e-05	
368	1.403810e-08	2.238890e-05	
369	1.407810e-08	2.286863e-05	
370	1.411810e-08	2.217523e-05	
371	1.415810e-08	2.265608e-05	
372	1.419810e-08	2.196257e-05	
373	1.423810e-08	2.244453e-05	
374	1.427810e-08	2.175094e-05	
375	1.431810e-08	2.223402e-05	
376	1.435810e-08	2.154036e-05	
377	1.439810e-08	2.202456e-05	
378	1.443810e-08	2.133084e-05	
379	1.447810e-08	2.181616e-05	
380	1.451810e-08	2.112240e-05	
381	1.455810e-08	2.160884e-05	
382	1.459810e-08	2.091504e-05	
383	1.463810e-08	2.140262e-05	
384	1.467810e-08	2.070880e-05	
385	1.471810e-08	2.119750e-05	
386	1.475810e-08	2.050368e-05	
387	1.479810e-08	2.099351e-05	
388	1.483810e-08	2.029969e-05	
389	1.487810e-08	2.079066e-05	
390	1.491810e-08	2.009686e-05	
391	1.495810e-08	2.058896e-05	
392	1.499810e-08	1.989518e-05	
393	1.503810e-08	2.038843e-05	
394	1.507810e-08	1.969468e-05	
395	1.511810e-08	2.018906e-05	
396	1.515810e-08	1.949536e-05	
397	1.519810e-08	1.999089e-05	
398	1.523810e-08	1.929724e-05	
399	1.527810e-08	1.979391e-05	
400	1.531810e-08	1.910033e-05	
401	1.535810e-08	1.959814e-05	
402	1.539810e-08	1.890464e-05	

Index   time            cf              
--------------------------------------------------------------------------------
403	1.543810e-08	1.940359e-05	
404	1.547810e-08	1.871017e-05	
405	1.551810e-08	1.921026e-05	
406	1.555810e-08	1.851694e-05	
407	1.559810e-08	1.901817e-05	
408	1.563810e-08	1.832495e-05	
409	1.567810e-08	1.882733e-05	
410	1.571810e-08	1.813422e-05	
411	1.575810e-08	1.863774e-05	
412	1.579810e-08	1.794475e-05	
413	1.583810e-08	1.844941e-05	
414	1.587810e-08	1.775655e-05	
415	1.591810e-08	1.826235e-05	
416	1.595810e-08	1.756963e-05	
417	1.599810e-08	1.807656e-05	
418	1.603810e-08	1.738399e-05	
419	1.607810e-08	1.789206e-05	
420	1.611810e-08	1.719963e-05	
421	1.615810e-08	1.770884e-05	
422	1.619810e-08	1.701657e-05	
423	1.623810e-08	1.752691e-05	
424	1.627810e-08	1.683481e-05	
425	1.631810e-08	1.734629e-05	
426	1.635810e-08	1.665436e-05	
427	1.639810e-08	1.716696e-05	
428	1.643810e-08	1.647521e-05	
429	1.647810e-08	1.698894e-05	
430	1.651810e-08	1.629738e-05	
431	1.655810e-08	1.681224e-05	
432	1.659810e-08	1.612087e-05	
433	1.663810e-08	1.663684e-05	
434	1.667810e-08	1.594567e-05	
435	1.671810e-08	1.646277e-05	
436	1.675810e-08	1.577180e-05	
437	1.679810e-08	1.629001e-05	
438	1.683810e-08	1.559926e-05	
439	1.687810e-08	1.611858e-05	
440	1.691810e-08	1.542804e-05	
441	1.695810e-08	1.594847e-05	
442	1.699810e-08	1.525815e-05	
443	1.703810e-08	1.577969e-05	
444	1.707810e-08	1.508960e-05	
445	1.711810e-08	1.561224e-05	
446	1.715810e-08	1.492237e-05	
447	1.719810e-08	1.544612e-05	
448	1.723810e-08	1.475649e-05	
449	1.727810e-08	1.528132e-05	
450	1.731810e-08	1.459192e-05	
451	1.735810e-08	1.511786e-05	
452	1.739810e-08	1.442872e-05	
453	1.743810e-08	1.495572e-05	
454	1.747810e-08	1.426682e-05	
455	1.751810e-08	1.479493e-05	
456	1.755810e-08	1.410628e-05	
457	1.759810e-08	1.463545e-05	
458	1.763810e-08	1.394705e-05	
459	1.767810e-08	1.447731e-05	
460	1.771810e-08	1.378918e-05	

Index   time            cf              
--------------------------------------------------------------------------------
461	1.775810e-08	1.432049e-05	
462	1.779810e-08	1.363261e-05	
463	1.783810e-08	1.416500e-05	
464	1.787810e-08	1.347740e-05	
465	1.791810e-08	1.401083e-05	
466	1.795810e-08	1.332350e-05	
467	1.799810e-08	1.385800e-05	
468	1.803810e-08	1.317093e-05	
469	1.807810e-08	1.370648e-05	
470	1.811810e-08	1.301969e-05	
471	1.815810e-08	1.355628e-05	
472	1.819810e-08	1.286976e-05	
473	1.823810e-08	1.340739e-05	
474	1.827810e-08	1.272116e-05	
475	1.831810e-08	1.325982e-05	
476	1.835810e-08	1.257387e-05	
477	1.839810e-08	1.311356e-05	
478	1.843810e-08	1.242790e-05	
479	1.847810e-08	1.296860e-05	
480	1.851810e-08	1.228323e-05	
481	1.855810e-08	1.282495e-05	
482	1.859810e-08	1.213987e-05	
483	1.863810e-08	1.268260e-05	
484	1.867810e-08	1.199781e-05	
485	1.871810e-08	1.254155e-05	
486	1.875810e-08	1.185705e-05	
487	1.879810e-08	1.240178e-05	
488	1.883810e-08	1.171758e-05	
489	1.887810e-08	1.226331e-05	
490	1.891810e-08	1.157940e-05	
491	1.895810e-08	1.212611e-05	
492	1.899810e-08	1.144251e-05	
493	1.903810e-08	1.199020e-05	
494	1.907810e-08	1.130689e-05	
495	1.911810e-08	1.185556e-05	
496	1.915810e-08	1.117255e-05	
497	1.919810e-08	1.172218e-05	
498	1.923810e-08	1.103948e-05	
499	1.927810e-08	1.159007e-05	
500	1.931810e-08	1.090768e-05	
501	1.935810e-08	1.145922e-05	
502	1.939810e-08	1.077713e-05	
503	1.943810e-08	1.132962e-05	
504	1.947810e-08	1.064783e-05	
505	1.951810e-08	1.120127e-05	
506	1.955810e-08	1.051979e-05	
507	1.959810e-08	1.107415e-05	
508	1.963810e-08	1.039298e-05	
509	1.967810e-08	1.094828e-05	
510	1.971810e-08	1.026741e-05	
511	1.975810e-08	1.082363e-05	
512	1.979810e-08	1.014307e-05	
513	1.983810e-08	1.070020e-05	
514	1.987810e-08	1.001996e-05	
515	1.991810e-08	1.057792e-05	
516	1.995810e-08	9.898088e-06	
517	1.999810e-08	1.045704e-05	
518	2.003810e-08	9.777340e-06	

Index   time            cf              
--------------------------------------------------------------------------------
519	2.007810e-08	1.033713e-05	
520	2.011810e-08	9.657909e-06	
521	2.015810e-08	1.021865e-05	
522	2.019810e-08	9.539564e-06	
523	2.023810e-08	1.010112e-05	
524	2.027810e-08	9.422521e-06	
525	2.031810e-08	9.985009e-06	
526	2.035810e-08	9.306550e-06	
527	2.039810e-08	9.869842e-06	
528	2.043810e-08	9.191866e-06	
529	2.047810e-08	9.756076e-06	
530	2.051810e-08	9.078239e-06	
531	2.055810e-08	9.643239e-06	
532	2.059810e-08	8.965887e-06	
533	2.063810e-08	9.531719e-06	
534	2.067810e-08	8.854610e-06	
535	2.071810e-08	9.421310e-06	
536	2.075810e-08	8.744500e-06	
537	2.079810e-08	9.312034e-06	
538	2.083810e-08	8.635533e-06	
539	2.087810e-08	9.203888e-06	
540	2.091810e-08	8.527699e-06	
541	2.095810e-08	9.096868e-06	
542	2.099810e-08	8.420990e-06	
543	2.103810e-08	8.990965e-06	
544	2.107810e-08	8.315398e-06	
545	2.111810e-08	8.886172e-06	
546	2.115810e-08	8.210916e-06	
547	2.119810e-08	8.782482e-06	
548	2.123810e-08	8.107535e-06	
549	2.127810e-08	8.679886e-06	
550	2.131810e-08	8.005249e-06	
551	2.135810e-08	8.578377e-06	
552	2.139810e-08	7.904049e-06	
553	2.143810e-08	8.477947e-06	
554	2.147810e-08	7.803928e-06	
555	2.151810e-08	8.378588e-06	
556	2.155810e-08	7.704878e-06	
557	2.159810e-08	8.280293e-06	
558	2.163810e-08	7.606890e-06	
559	2.167810e-08	8.183053e-06	
560	2.171810e-08	7.509957e-06	
561	2.175810e-08	8.086860e-06	
562	2.179810e-08	7.414070e-06	
563	2.183810e-08	7.991707e-06	
564	2.187810e-08	7.319223e-06	
565	2.191810e-08	7.897584e-06	
566	2.195810e-08	7.225406e-06	
567	2.199810e-08	7.804486e-06	
568	2.203810e-08	7.132612e-06	
569	2.207810e-08	7.712403e-06	
570	2.211810e-08	7.040833e-06	
571	2.215810e-08	7.621327e-06	
572	2.219810e-08	6.950060e-06	
573	2.223810e-08	7.531250e-06	
574	2.227810e-08	6.860285e-06	
575	2.231810e-08	7.442164e-06	
576	2.235810e-08	6.771501e-06	

Index   time            cf              
--------------------------------------------------------------------------------
577	2.239810e-08	7.354061e-06	
578	2.243810e-08	6.683699e-06	
579	2.247810e-08	7.266934e-06	
580	2.251810e-08	6.596871e-06	
581	2.255810e-08	7.180772e-06	
582	2.259810e-08	6.511009e-06	
583	2.263810e-08	7.095570e-06	
584	2.267810e-08	6.426105e-06	
585	2.271810e-08	7.011318e-06	
586	2.275810e-08	6.342151e-06	
587	2.279810e-08	6.928008e-06	
588	2.283810e-08	6.259138e-06	
589	2.287810e-08	6.845632e-06	
590	2.291810e-08	6.177059e-06	
591	2.295810e-08	6.764183e-06	
592	2.299810e-08	6.095905e-06	
593	2.303810e-08	6.683652e-06	
594	2.307810e-08	6.015668e-06	
595	2.311810e-08	6.604031e-06	
596	2.315810e-08	5.936340e-06	
597	2.319810e-08	6.525312e-06	
598	2.323810e-08	5.857913e-06	
599	2.327810e-08	6.447486e-06	
600	2.331810e-08	5.780380e-06	
601	2.335810e-08	6.370547e-06	
602	2.339810e-08	5.703731e-06	
603	2.343810e-08	6.294485e-06	
604	2.347810e-08	5.627959e-06	
605	2.351810e-08	6.219293e-06	
606	2.355810e-08	5.553056e-06	
607	2.359810e-08	6.144963e-06	
608	2.363810e-08	5.479014e-06	
609	2.367810e-08	6.071487e-06	
610	2.371810e-08	5.405824e-06	
611	2.375810e-08	5.998856e-06	
612	2.379810e-08	5.333480e-06	
613	2.383810e-08	5.927064e-06	
614	2.387810e-08	5.261973e-06	
615	2.391810e-08	5.856102e-06	
616	2.395810e-08	5.191295e-06	
617	2.399810e-08	5.785961e-06	
618	2.403810e-08	5.121438e-06	
619	2.407810e-08	5.716636e-06	
620	2.411810e-08	5.052395e-06	
621	2.415810e-08	5.648117e-06	
622	2.419810e-08	4.984157e-06	
623	2.423810e-08	5.580396e-06	
624	2.427810e-08	4.916717e-06	
625	2.431810e-08	5.513467e-06	
626	2.435810e-08	4.850068e-06	
627	2.439810e-08	5.447321e-06	
628	2.443810e-08	4.784201e-06	
629	2.447810e-08	5.381951e-06	
630	2.451810e-08	4.719109e-06	
631	2.455810e-08	5.317349e-06	
632	2.459810e-08	4.654783e-06	
633	2.463810e-08	5.253507e-06	
634	2.467810e-08	4.591218e-06	

Index   time            cf              
--------------------------------------------------------------------------------
635	2.471810e-08	5.190418e-06	
636	2.475810e-08	4.528405e-06	
637	2.479810e-08	5.128075e-06	
638	2.483810e-08	4.466336e-06	
639	2.487810e-08	5.066469e-06	
640	2.491810e-08	4.405004e-06	
641	2.495810e-08	5.005594e-06	
642	2.499810e-08	4.344401e-06	
643	2.503810e-08	4.945443e-06	
644	2.507810e-08	4.284521e-06	
645	2.511810e-08	4.886006e-06	
646	2.515810e-08	4.225356e-06	
647	2.519810e-08	4.827278e-06	
648	2.523810e-08	4.166898e-06	
649	2.527810e-08	4.769252e-06	
650	2.531810e-08	4.109141e-06	
651	2.535810e-08	4.711919e-06	
652	2.539810e-08	4.052077e-06	
653	2.543810e-08	4.655273e-06	
654	2.547810e-08	3.995698e-06	
655	2.551810e-08	4.599306e-06	
656	2.555810e-08	3.939999e-06	
657	2.559810e-08	4.544012e-06	
658	2.563810e-08	3.884971e-06	
659	2.567810e-08	4.489383e-06	
660	2.571810e-08	3.830608e-06	
661	2.575810e-08	4.435413e-06	
662	2.579810e-08	3.776902e-06	
663	2.583810e-08	4.382094e-06	
664	2.587810e-08	3.723847e-06	
665	2.591810e-08	4.329420e-06	
666	2.595810e-08	3.671437e-06	
667	2.599810e-08	4.277383e-06	
668	2.603810e-08	3.619663e-06	
669	2.607810e-08	4.225978e-06	
670	2.611810e-08	3.568519e-06	
671	2.615810e-08	4.175196e-06	
672	2.619810e-08	3.517998e-06	
673	2.623810e-08	4.125032e-06	
674	2.627810e-08	3.468095e-06	
675	2.631810e-08	4.075479e-06	
676	2.635810e-08	3.418801e-06	
677	2.639810e-08	4.026530e-06	
678	2.643810e-08	3.370111e-06	
679	2.647810e-08	3.978178e-06	
680	2.651810e-08	3.322018e-06	
681	2.655810e-08	3.930418e-06	
682	2.659810e-08	3.274516e-06	
683	2.663810e-08	3.883242e-06	
684	2.667810e-08	3.227597e-06	
685	2.671810e-08	3.836644e-06	
686	2.675810e-08	3.181256e-06	
687	2.679810e-08	3.790618e-06	
688	2.683810e-08	3.135486e-06	
689	2.687810e-08	3.745158e-06	
690	2.691810e-08	3.090282e-06	
691	2.695810e-08	3.700257e-06	
692	2.699810e-08	3.045636e-06	

Index   time            cf              
--------------------------------------------------------------------------------
693	2.703810e-08	3.655909e-06	
694	2.707810e-08	3.001542e-06	
695	2.711810e-08	3.612108e-06	
696	2.715810e-08	2.957995e-06	
697	2.719810e-08	3.568847e-06	
698	2.723810e-08	2.914988e-06	
699	2.727810e-08	3.526122e-06	
700	2.731810e-08	2.872516e-06	
701	2.735810e-08	3.483925e-06	
702	2.739810e-08	2.830571e-06	
703	2.743810e-08	3.442251e-06	
704	2.747810e-08	2.789149e-06	
705	2.751810e-08	3.401094e-06	
706	2.755810e-08	2.748244e-06	
707	2.759810e-08	3.360448e-06	
708	2.763810e-08	2.707849e-06	
709	2.767810e-08	3.320307e-06	
710	2.771810e-08	2.667959e-06	
711	2.775810e-08	3.280665e-06	
712	2.779810e-08	2.628567e-06	
713	2.783810e-08	3.241518e-06	
714	2.787810e-08	2.589670e-06	
715	2.791810e-08	3.202858e-06	
716	2.795810e-08	2.551260e-06	
717	2.799810e-08	3.164681e-06	
718	2.803810e-08	2.513332e-06	
719	2.807810e-08	3.126981e-06	
720	2.811810e-08	2.475881e-06	
721	2.815810e-08	3.089753e-06	
722	2.819810e-08	2.438901e-06	
723	2.823810e-08	3.052991e-06	
724	2.827810e-08	2.402386e-06	
725	2.831810e-08	3.016689e-06	
726	2.835810e-08	2.366332e-06	
727	2.839810e-08	2.980843e-06	
728	2.843810e-08	2.330733e-06	
729	2.847810e-08	2.945447e-06	
730	2.851810e-08	2.295584e-06	
731	2.855810e-08	2.910496e-06	
732	2.859810e-08	2.260880e-06	
733	2.863810e-08	2.875984e-06	
734	2.867810e-08	2.226615e-06	
735	2.871810e-08	2.841907e-06	
736	2.875810e-08	2.192784e-06	
737	2.879810e-08	2.808259e-06	
738	2.883810e-08	2.159382e-06	
739	2.887810e-08	2.775035e-06	
740	2.891810e-08	2.126404e-06	
741	2.895810e-08	2.742231e-06	
742	2.899810e-08	2.093846e-06	
743	2.903810e-08	2.756542e-06	
744	2.907810e-08	2.107256e-06	
745	2.911810e-08	2.723575e-06	
746	2.915810e-08	2.076756e-06	
747	2.919810e-08	2.691777e-06	
748	2.923810e-08	2.045172e-06	
749	2.927810e-08	2.660301e-06	
750	2.931810e-08	2.013794e-06	

Index   time            cf              
--------------------------------------------------------------------------------
751	2.935810e-08	2.629177e-06	
752	2.939810e-08	1.982793e-06	
753	2.943810e-08	2.598426e-06	
754	2.947810e-08	1.952193e-06	
755	2.951810e-08	2.568052e-06	
756	2.955810e-08	1.921987e-06	
757	2.959810e-08	2.538054e-06	
758	2.963810e-08	1.892172e-06	
759	2.967810e-08	2.508430e-06	
760	2.971810e-08	1.862743e-06	
761	2.975810e-08	2.479177e-06	
762	2.979810e-08	1.833695e-06	
763	2.983810e-08	2.450292e-06	
764	2.987810e-08	1.805022e-06	
765	2.991810e-08	2.421771e-06	
766	2.995810e-08	1.776716e-06	
767	2.999810e-08	2.393613e-06	
768	3.003810e-08	1.748787e-06	
769	3.007810e-08	2.365806e-06	
770	3.011810e-08	1.721202e-06	
771	3.015810e-08	2.338359e-06	
772	3.019810e-08	1.693991e-06	
773	3.023810e-08	2.311255e-06	
774	3.027810e-08	1.667114e-06	
775	3.031810e-08	2.284504e-06	
776	3.035810e-08	1.640602e-06	
777	3.039810e-08	2.258087e-06	
778	3.043810e-08	1.614416e-06	
779	3.047810e-08	2.232014e-06	
780	3.051810e-08	1.588586e-06	
781	3.055810e-08	2.206268e-06	
782	3.059810e-08	1.563073e-06	
783	3.063810e-08	2.180858e-06	
784	3.067810e-08	1.537908e-06	
785	3.071810e-08	2.155768e-06	
786	3.075810e-08	1.513052e-06	
787	3.079810e-08	2.131006e-06	
788	3.083810e-08	1.488532e-06	
789	3.087810e-08	2.106557e-06	
790	3.091810e-08	1.464325e-06	
791	3.095810e-08	2.082423e-06	
792	3.099810e-08	1.440433e-06	
793	3.103810e-08	2.058600e-06	
794	3.107810e-08	1.416852e-06	
795	3.111810e-08	2.035083e-06	
796	3.115810e-08	1.393577e-06	
797	3.119810e-08	2.011869e-06	
798	3.123810e-08	1.370606e-06	
799	3.127810e-08	1.988954e-06	
800	3.131810e-08	1.347934e-06	
801	3.135810e-08	1.966335e-06	
802	3.139810e-08	1.325558e-06	
803	3.143810e-08	1.944007e-06	
804	3.147810e-08	1.303473e-06	
805	3.151810e-08	1.921967e-06	
806	3.155810e-08	1.281677e-06	
807	3.159810e-08	1.900212e-06	
808	3.163810e-08	1.260166e-06	

Index   time            cf              
--------------------------------------------------------------------------------
809	3.167810e-08	1.878738e-06	
810	3.171810e-08	1.238936e-06	
811	3.175810e-08	1.857540e-06	
812	3.179810e-08	1.217984e-06	
813	3.183810e-08	1.836618e-06	
814	3.187810e-08	1.197307e-06	
815	3.191810e-08	1.815966e-06	
816	3.195810e-08	1.176900e-06	
817	3.199810e-08	1.795581e-06	
818	3.203810e-08	1.156761e-06	
819	3.207810e-08	1.775460e-06	
820	3.211810e-08	1.136886e-06	
821	3.215810e-08	1.755600e-06	
822	3.219810e-08	1.117272e-06	
823	3.223810e-08	1.735997e-06	
824	3.227810e-08	1.097916e-06	
825	3.231810e-08	1.716649e-06	
826	3.235810e-08	1.078815e-06	
827	3.239810e-08	1.697551e-06	
828	3.243810e-08	1.059965e-06	
829	3.247810e-08	1.678702e-06	
830	3.251810e-08	1.041363e-06	
831	3.255810e-08	1.660097e-06	
832	3.259810e-08	1.023006e-06	
833	3.263810e-08	1.641733e-06	
834	3.267810e-08	1.004891e-06	
835	3.271810e-08	1.623608e-06	
836	3.275810e-08	9.870151e-07	
837	3.279810e-08	1.605720e-06	
838	3.283810e-08	9.693753e-07	
839	3.287810e-08	1.588063e-06	
840	3.291810e-08	9.519686e-07	
841	3.295810e-08	1.570636e-06	
842	3.299810e-08	9.347920e-07	
843	3.303810e-08	1.553437e-06	
844	3.307810e-08	9.178425e-07	
845	3.311810e-08	1.536461e-06	
846	3.315810e-08	9.011175e-07	
847	3.319810e-08	1.519706e-06	
848	3.323810e-08	8.846140e-07	
849	3.327810e-08	1.503169e-06	
850	3.331810e-08	8.683292e-07	
851	3.335810e-08	1.486848e-06	
852	3.339810e-08	8.522604e-07	
853	3.343810e-08	1.470740e-06	
854	3.347810e-08	8.364048e-07	
855	3.351810e-08	1.454842e-06	
856	3.355810e-08	8.207598e-07	
857	3.359810e-08	1.439151e-06	
858	3.363810e-08	8.053227e-07	
859	3.367810e-08	1.423665e-06	
860	3.371810e-08	7.900908e-07	
861	3.375810e-08	1.408382e-06	
862	3.379810e-08	7.750616e-07	
863	3.383810e-08	1.393298e-06	
864	3.387810e-08	7.602324e-07	
865	3.391810e-08	1.378411e-06	
866	3.395810e-08	7.456008e-07	

Index   time            cf              
--------------------------------------------------------------------------------
867	3.399810e-08	1.363718e-06	
868	3.403810e-08	7.311642e-07	
869	3.407810e-08	1.349218e-06	
870	3.411810e-08	7.169202e-07	
871	3.415810e-08	1.334907e-06	
872	3.419810e-08	7.028663e-07	
873	3.423810e-08	1.320783e-06	
874	3.427810e-08	6.890001e-07	
875	3.431810e-08	1.306844e-06	
876	3.435810e-08	6.753191e-07	
877	3.439810e-08	1.293088e-06	
878	3.443810e-08	6.618212e-07	
879	3.447810e-08	1.279512e-06	
880	3.451810e-08	6.485038e-07	
881	3.455810e-08	1.266113e-06	
882	3.459810e-08	6.353647e-07	
883	3.463810e-08	1.252890e-06	
884	3.467810e-08	6.224016e-07	
885	3.471810e-08	1.239840e-06	
886	3.475810e-08	6.096122e-07	
887	3.479810e-08	1.226961e-06	
888	3.483810e-08	5.969944e-07	
889	3.487810e-08	1.214251e-06	
890	3.491810e-08	5.845460e-07	
891	3.495810e-08	1.201779e-06	
892	3.499810e-08	5.722635e-07	
893	3.503810e-08	1.189784e-06	
894	3.507810e-08	5.601420e-07	
895	3.511810e-08	1.177943e-06	
896	3.515810e-08	5.481891e-07	
897	3.519810e-08	1.166249e-06	
898	3.523810e-08	5.364008e-07	
899	3.527810e-08	1.154699e-06	
900	3.531810e-08	5.247742e-07	
901	3.535810e-08	1.143295e-06	
902	3.539810e-08	5.133064e-07	
903	3.543810e-08	1.132035e-06	
904	3.547810e-08	5.019949e-07	
905	3.551810e-08	1.120919e-06	
906	3.555810e-08	4.908374e-07	
907	3.559810e-08	1.109946e-06	
908	3.563810e-08	4.848140e-07	
909	3.567810e-08	1.104745e-06	
910	3.571810e-08	4.740512e-07	
911	3.575810e-08	1.093896e-06	
912	3.579810e-08	4.633470e-07	
913	3.583810e-08	1.083225e-06	
914	3.587810e-08	4.527548e-07	
915	3.591810e-08	1.072706e-06	
916	3.595810e-08	4.422989e-07	
917	3.599810e-08	1.062336e-06	
918	3.603810e-08	4.319815e-07	
919	3.607810e-08	1.052110e-06	
920	3.611810e-08	4.218022e-07	
921	3.615810e-08	1.042024e-06	
922	3.619810e-08	4.117595e-07	
923	3.623810e-08	1.032076e-06	
924	3.627810e-08	4.018520e-07	

Index   time            cf              
--------------------------------------------------------------------------------
925	3.631810e-08	1.022263e-06	
926	3.635810e-08	3.920782e-07	
927	3.639810e-08	1.012581e-06	
928	3.643810e-08	3.824367e-07	
929	3.647810e-08	1.003029e-06	
930	3.651810e-08	3.729259e-07	
931	3.655810e-08	9.936038e-07	
932	3.659810e-08	3.635442e-07	
933	3.663810e-08	9.843042e-07	
934	3.667810e-08	3.542900e-07	
935	3.671810e-08	9.751280e-07	
936	3.675810e-08	3.451618e-07	
937	3.679810e-08	9.660732e-07	
938	3.683810e-08	3.361581e-07	
939	3.687810e-08	9.571382e-07	
940	3.691810e-08	3.272771e-07	
941	3.695810e-08	9.483212e-07	
942	3.699810e-08	3.185175e-07	
943	3.703810e-08	9.396205e-07	
944	3.707810e-08	3.098775e-07	
945	3.711810e-08	9.310345e-07	
946	3.715810e-08	3.013558e-07	
947	3.719810e-08	9.225617e-07	
948	3.723810e-08	2.929506e-07	
949	3.727810e-08	9.142006e-07	
950	3.731810e-08	2.846607e-07	
951	3.735810e-08	9.059495e-07	
952	3.739810e-08	2.764844e-07	
953	3.743810e-08	8.978071e-07	
954	3.747810e-08	2.684203e-07	
955	3.751810e-08	8.897719e-07	
956	3.755810e-08	2.604670e-07	
957	3.759810e-08	8.818424e-07	
958	3.763810e-08	2.526230e-07	
959	3.767810e-08	8.740173e-07	
960	3.771810e-08	2.448868e-07	
961	3.775810e-08	8.662952e-07	
962	3.779810e-08	2.372572e-07	
963	3.783810e-08	8.586746e-07	
964	3.787810e-08	2.297326e-07	
965	3.791810e-08	8.511544e-07	
966	3.795810e-08	2.223117e-07	
967	3.799810e-08	8.437330e-07	
968	3.803810e-08	2.149933e-07	
969	3.807810e-08	8.364093e-07	
970	3.811810e-08	2.077758e-07	
971	3.815810e-08	8.291819e-07	
972	3.819810e-08	2.006581e-07	
973	3.823810e-08	8.220495e-07	
974	3.827810e-08	1.936387e-07	
975	3.831810e-08	8.150110e-07	
976	3.835810e-08	1.867165e-07	
977	3.839810e-08	8.080650e-07	
978	3.843810e-08	1.798901e-07	
979	3.847810e-08	8.012104e-07	
980	3.851810e-08	1.731583e-07	
981	3.855810e-08	7.944459e-07	
982	3.859810e-08	1.665199e-07	

Index   time            cf              
--------------------------------------------------------------------------------
983	3.863810e-08	7.877703e-07	
984	3.867810e-08	1.599736e-07	
985	3.871810e-08	7.811825e-07	
986	3.875810e-08	1.535182e-07	
987	3.879810e-08	7.746813e-07	
988	3.883810e-08	1.471525e-07	
989	3.887810e-08	7.682656e-07	
990	3.891810e-08	1.408754e-07	
991	3.895810e-08	7.619342e-07	
992	3.899810e-08	1.346857e-07	
993	3.903810e-08	7.556859e-07	
994	3.907810e-08	1.285822e-07	
995	3.911810e-08	7.495198e-07	
996	3.915810e-08	1.225639e-07	
997	3.919810e-08	7.434347e-07	
998	3.923810e-08	1.166295e-07	
999	3.927810e-08	7.374296e-07	
1000	3.931810e-08	1.107780e-07	
1001	3.935810e-08	7.315033e-07	
1002	3.939810e-08	1.050083e-07	
1003	3.943810e-08	7.256548e-07	
1004	3.947810e-08	9.931933e-08	
1005	3.951810e-08	7.198832e-07	
1006	3.955810e-08	9.371439e-08	
1007	3.959810e-08	7.141736e-07	
1008	3.963810e-08	8.819088e-08	
1009	3.967810e-08	7.085541e-07	
1010	3.971810e-08	8.273405e-08	
1011	3.975810e-08	7.030106e-07	
1012	3.979810e-08	7.735429e-08	
1013	3.983810e-08	6.975389e-07	
1014	3.987810e-08	7.205109e-08	
1015	3.991810e-08	6.921381e-07	
1016	3.995810e-08	6.682281e-08	
1017	3.999810e-08	6.868076e-07	
1018	4.003810e-08	6.166982e-08	
1019	4.007810e-08	6.815465e-07	
1020	4.011810e-08	5.658822e-08	
1021	4.015810e-08	6.763541e-07	
1022	4.019810e-08	5.157961e-08	
1023	4.023810e-08	6.712296e-07	
1024	4.027810e-08	4.664146e-08	
1025	4.031810e-08	6.661722e-07	
1026	4.035810e-08	4.177315e-08	
1027	4.039810e-08	6.611809e-07	
1028	4.043810e-08	3.697373e-08	
1029	4.047810e-08	6.562551e-07	
1030	4.051810e-08	3.224228e-08	
1031	4.055810e-08	6.513936e-07	
1032	4.059810e-08	2.757788e-08	
1033	4.063810e-08	6.465959e-07	
1034	4.067810e-08	2.297964e-08	
1035	4.071810e-08	6.418609e-07	
1036	4.075810e-08	1.844669e-08	
1037	4.079810e-08	6.371879e-07	
1038	4.083810e-08	1.397815e-08	
1039	4.087810e-08	6.325760e-07	
1040	4.091810e-08	9.573179e-09	

Index   time            cf              
--------------------------------------------------------------------------------
1041	4.095810e-08	6.280245e-07	
1042	4.099810e-08	5.230933e-09	
1043	4.103810e-08	6.235324e-07	
1044	4.107810e-08	9.505762e-10	
1045	4.111810e-08	6.190991e-07	
1046	4.115810e-08	-3.26870e-09	
1047	4.119810e-08	6.147237e-07	
1048	4.123810e-08	-7.42772e-09	
1049	4.127810e-08	6.104085e-07	
1050	4.131810e-08	-1.15319e-08	
1051	4.135810e-08	6.061477e-07	
1052	4.139810e-08	-1.55708e-08	
1053	4.143810e-08	6.019368e-07	
1054	4.147810e-08	-1.95478e-08	
1055	4.151810e-08	5.977834e-07	
1056	4.155810e-08	-2.34750e-08	
1057	4.159810e-08	5.936906e-07	
1058	4.163810e-08	-2.73501e-08	
1059	4.167810e-08	5.896487e-07	
1060	4.171810e-08	-3.11373e-08	
1061	4.175810e-08	5.856602e-07	
1062	4.179810e-08	-3.48553e-08	
1063	4.183810e-08	5.817302e-07	
1064	4.187810e-08	-3.85212e-08	
1065	4.191810e-08	5.778566e-07	
1066	4.195810e-08	-4.21352e-08	
1067	4.199810e-08	5.740374e-07	
1068	4.203810e-08	-4.56977e-08	
1069	4.207810e-08	5.702709e-07	
1070	4.211810e-08	-4.92092e-08	
1071	4.215810e-08	5.665559e-07	
1072	4.219810e-08	-5.26703e-08	
1073	4.223810e-08	5.628911e-07	
1074	4.227810e-08	-5.60814e-08	
1075	4.231810e-08	5.592754e-07	
1076	4.235810e-08	-5.94432e-08	
1077	4.239810e-08	5.557079e-07	
1078	4.243810e-08	-6.27563e-08	
1079	4.247810e-08	5.521876e-07	
1080	4.251810e-08	-6.60213e-08	
1081	4.255810e-08	5.487140e-07	
1082	4.259810e-08	-6.92389e-08	
1083	4.263810e-08	5.452857e-07	
1084	4.267810e-08	-7.24094e-08	
1085	4.271810e-08	5.419025e-07	
1086	4.275810e-08	-7.55337e-08	
1087	4.279810e-08	5.385635e-07	
1088	4.283810e-08	-7.86123e-08	
1089	4.287810e-08	5.352682e-07	
1090	4.291810e-08	-8.16457e-08	
1091	4.295810e-08	5.320157e-07	
1092	4.299810e-08	-8.46347e-08	
1093	4.303810e-08	5.288055e-07	
1094	4.307810e-08	-8.75797e-08	
1095	4.311810e-08	5.256370e-07	
1096	4.315810e-08	-9.04814e-08	
1097	4.319810e-08	5.225096e-07	
1098	4.323810e-08	-9.33403e-08	

Index   time            cf              
--------------------------------------------------------------------------------
1099	4.327810e-08	5.194227e-07	
1100	4.331810e-08	-9.61569e-08	
1101	4.335810e-08	5.163757e-07	
1102	4.339810e-08	-9.89319e-08	
1103	4.343810e-08	5.133682e-07	
1104	4.347810e-08	-1.01666e-07	
1105	4.351810e-08	5.103995e-07	
1106	4.355810e-08	-1.04359e-07	
1107	4.359810e-08	5.074691e-07	
1108	4.363810e-08	-1.07013e-07	
1109	4.367810e-08	5.045766e-07	
1110	4.371810e-08	-1.09626e-07	
1111	4.375810e-08	5.017213e-07	
1112	4.379810e-08	-1.12201e-07	
1113	4.383810e-08	4.989027e-07	
1114	4.387810e-08	-1.14738e-07	
1115	4.391810e-08	4.961205e-07	
1116	4.395810e-08	-1.17236e-07	
1117	4.399810e-08	4.933740e-07	
1118	4.403810e-08	-1.19697e-07	
1119	4.407810e-08	4.906628e-07	
1120	4.411810e-08	-1.22121e-07	
1121	4.415810e-08	4.879865e-07	
1122	4.419810e-08	-1.24509e-07	
1123	4.423810e-08	4.853444e-07	
1124	4.427810e-08	-1.26861e-07	
1125	4.431810e-08	4.667461e-07	
1126	4.435810e-08	-1.48086e-07	
1127	4.439810e-08	4.773625e-07	
1128	4.443810e-08	-1.31795e-07	
1129	4.447810e-08	4.773432e-07	
1130	4.451810e-08	-1.33849e-07	
1131	4.455810e-08	4.750467e-07	
1132	4.459810e-08	-1.35951e-07	
1133	4.463810e-08	4.725943e-07	
1134	4.467810e-08	-1.38102e-07	
1135	4.471810e-08	4.701554e-07	
1136	4.475810e-08	-1.40241e-07	
1137	4.479810e-08	4.677461e-07	
1138	4.483810e-08	-1.42352e-07	
1139	4.487810e-08	4.653672e-07	
1140	4.491810e-08	-1.44433e-07	
1141	4.495810e-08	4.630179e-07	
1142	4.499810e-08	-1.46483e-07	
1143	4.503810e-08	4.606980e-07	
1144	4.507810e-08	-1.48501e-07	
1145	4.511810e-08	4.584070e-07	
1146	4.515810e-08	-1.50488e-07	
1147	4.519810e-08	4.561446e-07	
1148	4.523810e-08	-1.52444e-07	
1149	4.527810e-08	4.539105e-07	
1150	4.531810e-08	-1.54370e-07	
1151	4.535810e-08	4.517044e-07	
1152	4.539810e-08	-1.56267e-07	
1153	4.543810e-08	4.495260e-07	
1154	4.547810e-08	-1.58134e-07	
1155	4.551810e-08	4.473750e-07	
1156	4.555810e-08	-1.59972e-07	

Index   time            cf              
--------------------------------------------------------------------------------
1157	4.559810e-08	4.452511e-07	
1158	4.563810e-08	-1.61781e-07	
1159	4.567810e-08	4.431538e-07	
1160	4.571810e-08	-1.63562e-07	
1161	4.575810e-08	4.410829e-07	
1162	4.579810e-08	-1.65315e-07	
1163	4.583810e-08	4.390380e-07	
1164	4.587810e-08	-1.67041e-07	
1165	4.591810e-08	4.370188e-07	
1166	4.595810e-08	-1.68740e-07	
1167	4.599810e-08	4.350250e-07	
1168	4.603810e-08	-1.70411e-07	
1169	4.607810e-08	4.330562e-07	
1170	4.611810e-08	-1.72057e-07	
1171	4.615810e-08	4.311121e-07	
1172	4.619810e-08	-1.73677e-07	
1173	4.623810e-08	4.291924e-07	
1174	4.627810e-08	-1.75270e-07	
1175	4.631810e-08	4.272967e-07	
1176	4.635810e-08	-1.76839e-07	
1177	4.639810e-08	4.254247e-07	
1178	4.643810e-08	-1.78382e-07	
1179	4.647810e-08	4.235761e-07	
1180	4.651810e-08	-1.79901e-07	
1181	4.655810e-08	4.217506e-07	
1182	4.659810e-08	-1.81396e-07	
1183	4.663810e-08	4.199478e-07	
1184	4.667810e-08	-1.82867e-07	
1185	4.671810e-08	4.181675e-07	
1186	4.675810e-08	-1.84313e-07	
1187	4.679810e-08	4.164094e-07	
1188	4.683810e-08	-1.85737e-07	
1189	4.687810e-08	4.146731e-07	
1190	4.691810e-08	-1.87138e-07	
1191	4.695810e-08	4.129583e-07	
1192	4.699810e-08	-1.88515e-07	
1193	4.703810e-08	4.112648e-07	
1194	4.707810e-08	-1.89871e-07	
1195	4.711810e-08	4.095923e-07	
1196	4.715810e-08	-1.91204e-07	
1197	4.719810e-08	4.079404e-07	
1198	4.723810e-08	-1.92516e-07	
1199	4.727810e-08	4.063090e-07	
1200	4.731810e-08	-1.93805e-07	
1201	4.735810e-08	4.046968e-07	
1202	4.739810e-08	-1.95074e-07	
1203	4.743810e-08	4.031063e-07	
1204	4.747810e-08	-1.96322e-07	
1205	4.751810e-08	4.015339e-07	
1206	4.755810e-08	-1.97548e-07	
1207	4.759810e-08	3.999808e-07	
1208	4.763810e-08	-1.98755e-07	
1209	4.767810e-08	3.984060e-07	
1210	4.771810e-08	-1.99931e-07	
1211	4.775810e-08	3.969159e-07	
1212	4.779810e-08	-2.01094e-07	
1213	4.783810e-08	3.954340e-07	
1214	4.787810e-08	-2.02260e-07	

Index   time            cf              
--------------------------------------------------------------------------------
1215	4.791810e-08	3.939482e-07	
1216	4.795810e-08	-2.03373e-07	
1217	4.799810e-08	3.924513e-07	
1218	4.803810e-08	-2.04478e-07	
1219	4.807810e-08	3.910445e-07	
1220	4.811810e-08	-2.05577e-07	
1221	4.815810e-08	3.896232e-07	
1222	4.819810e-08	-2.06650e-07	
1223	4.823810e-08	3.882187e-07	
1224	4.827810e-08	-2.07705e-07	
1225	4.831810e-08	3.868289e-07	
1226	4.835810e-08	-2.08740e-07	
1227	4.839810e-08	3.854547e-07	
1228	4.843810e-08	-2.09757e-07	
1229	4.847810e-08	3.840989e-07	
1230	4.851810e-08	-2.10757e-07	
1231	4.855810e-08	3.827580e-07	
1232	4.859810e-08	-2.11739e-07	
1233	4.863810e-08	3.814324e-07	
1234	4.867810e-08	-2.12703e-07	
1235	4.871810e-08	3.801247e-07	
1236	4.875810e-08	-2.13652e-07	
1237	4.879810e-08	3.788314e-07	
1238	4.883810e-08	-2.14584e-07	
1239	4.887810e-08	3.775208e-07	
1240	4.891810e-08	-2.15481e-07	
1241	4.895810e-08	3.763091e-07	
1242	4.899810e-08	-2.16406e-07	
1243	4.903810e-08	3.750177e-07	
1244	4.907810e-08	-2.17268e-07	
1245	4.911810e-08	3.738001e-07	
1246	4.915810e-08	-2.18141e-07	
1247	4.919810e-08	3.725873e-07	
1248	4.923810e-08	-2.18996e-07	
1249	4.927810e-08	3.713861e-07	
1250	4.931810e-08	-2.19834e-07	
1251	4.935810e-08	3.701975e-07	
1252	4.939810e-08	-2.20656e-07	
1253	4.943810e-08	3.690245e-07	
1254	4.947810e-08	-2.21464e-07	
1255	4.951810e-08	3.678637e-07	
1256	4.955810e-08	-2.22256e-07	
1257	4.959810e-08	3.667156e-07	
1258	4.963810e-08	-2.23032e-07	
1259	4.967810e-08	3.655829e-07	
1260	4.971810e-08	-2.23796e-07	
1261	4.975810e-08	3.644620e-07	
1262	4.979810e-08	-2.24545e-07	
1263	4.983810e-08	3.633535e-07	
1264	4.987810e-08	-2.25279e-07	
1265	4.991810e-08	3.622591e-07	
1266	4.995810e-08	-2.26000e-07	
1267	4.999810e-08	3.611780e-07	
1268	5.003810e-08	-2.26709e-07	
1269	5.007810e-08	3.601083e-07	
1270	5.011810e-08	-2.27402e-07	
1271	5.015810e-08	3.590502e-07	
1272	5.019810e-08	-2.28083e-07	

Index   time            cf              
--------------------------------------------------------------------------------
1273	5.023810e-08	3.580057e-07	
1274	5.027810e-08	-2.28751e-07	
1275	5.031810e-08	3.569738e-07	
1276	5.035810e-08	-2.29406e-07	
1277	5.039810e-08	3.559526e-07	
1278	5.043810e-08	-2.30049e-07	
1279	5.047810e-08	3.549424e-07	
1280	5.051810e-08	-2.30678e-07	
1281	5.055810e-08	3.539451e-07	
1282	5.059810e-08	-2.31296e-07	
1283	5.063810e-08	3.529668e-07	
1284	5.067810e-08	-2.31908e-07	
1285	5.071810e-08	3.519887e-07	
1286	5.075810e-08	-2.32498e-07	
1287	5.079810e-08	3.510226e-07	
1288	5.083810e-08	-2.33078e-07	
1289	5.087810e-08	3.500692e-07	
1290	5.091810e-08	-2.33648e-07	
1291	5.095810e-08	3.491253e-07	
1292	5.099810e-08	-2.34205e-07	
1293	5.103810e-08	3.481935e-07	
1294	5.107810e-08	-2.34752e-07	
1295	5.111810e-08	3.472731e-07	
1296	5.115810e-08	-2.35289e-07	
1297	5.119810e-08	3.463613e-07	
1298	5.123810e-08	-2.35813e-07	
1299	5.127810e-08	3.454609e-07	
1300	5.131810e-08	-2.36327e-07	
1301	5.135810e-08	3.445713e-07	
1302	5.139810e-08	-2.36831e-07	
1303	5.143810e-08	3.436897e-07	
1304	5.147810e-08	-2.37323e-07	
1305	5.151810e-08	3.428191e-07	
1306	5.155810e-08	-2.37805e-07	
1307	5.159810e-08	3.419589e-07	
1308	5.163810e-08	-2.38278e-07	
1309	5.167810e-08	3.411062e-07	
1310	5.171810e-08	-2.38739e-07	
1311	5.175810e-08	3.402642e-07	
1312	5.179810e-08	-2.39191e-07	
1313	5.183810e-08	3.394321e-07	
1314	5.187810e-08	-2.39670e-07	
1315	5.191810e-08	3.386268e-07	
1316	5.195810e-08	-2.40041e-07	
1317	5.199810e-08	3.377818e-07	
1318	5.203810e-08	-2.40517e-07	
1319	5.207810e-08	3.370021e-07	
1320	5.211810e-08	-2.40875e-07	
1321	5.215810e-08	3.361764e-07	
1322	5.219810e-08	-2.41331e-07	
1323	5.223810e-08	3.354139e-07	
1324	5.227810e-08	-2.41706e-07	
1325	5.231810e-08	3.346269e-07	
1326	5.235810e-08	-2.42077e-07	
1327	5.239810e-08	3.338410e-07	
1328	5.243810e-08	-2.42455e-07	
1329	5.247810e-08	3.330809e-07	
1330	5.251810e-08	-2.42825e-07	

Index   time            cf              
--------------------------------------------------------------------------------
1331	5.255810e-08	3.323284e-07	
1332	5.259810e-08	-2.43186e-07	
1333	5.263810e-08	3.315811e-07	
1334	5.267810e-08	-2.43536e-07	
1335	5.271810e-08	3.308424e-07	
1336	5.275810e-08	-2.43878e-07	
1337	5.279810e-08	3.301113e-07	
1338	5.283810e-08	-2.44211e-07	
1339	5.287810e-08	3.293883e-07	
1340	5.291810e-08	-2.44537e-07	
1341	5.295810e-08	3.286711e-07	
1342	5.299810e-08	-2.44853e-07	
1343	5.303810e-08	3.279626e-07	
1344	5.307810e-08	-2.45162e-07	
1345	5.311810e-08	3.272614e-07	
1346	5.315810e-08	-2.45463e-07	
1347	5.319810e-08	3.265674e-07	
1348	5.323810e-08	-2.45756e-07	
1349	5.327810e-08	3.258805e-07	
1350	5.331810e-08	-2.46041e-07	
1351	5.335810e-08	3.251949e-07	
1352	5.339810e-08	-2.46312e-07	
1353	5.343810e-08	3.245140e-07	
1354	5.347810e-08	-2.46570e-07	
1355	5.351810e-08	3.238238e-07	
1356	5.355810e-08	-2.46835e-07	
1357	5.359810e-08	3.231562e-07	
1358	5.363810e-08	-2.47073e-07	
1359	5.367810e-08	3.224958e-07	
1360	5.371810e-08	-2.47319e-07	
1361	5.375810e-08	3.218484e-07	
1362	5.379810e-08	-2.47560e-07	
1363	5.383810e-08	3.212086e-07	
1364	5.387810e-08	-2.47794e-07	
1365	5.391810e-08	3.205754e-07	
1366	5.395810e-08	-2.48021e-07	
1367	5.399810e-08	3.199487e-07	
1368	5.403810e-08	-2.48242e-07	
1369	5.407810e-08	3.193283e-07	
1370	5.411810e-08	-2.48455e-07	
1371	5.415810e-08	3.187141e-07	
1372	5.419810e-08	-2.48663e-07	
1373	5.423810e-08	3.181060e-07	
1374	5.427810e-08	-2.48863e-07	
1375	5.431810e-08	3.175039e-07	
1376	5.435810e-08	-2.49057e-07	
1377	5.439810e-08	3.169077e-07	
1378	5.443810e-08	-2.49245e-07	
1379	5.447810e-08	3.163174e-07	
1380	5.451810e-08	-2.49427e-07	
1381	5.455810e-08	3.157328e-07	
1382	5.459810e-08	-2.49602e-07	
1383	5.463810e-08	3.151555e-07	
1384	5.467810e-08	-2.49773e-07	
1385	5.471810e-08	3.145819e-07	
1386	5.475810e-08	-2.49936e-07	
1387	5.479810e-08	3.140136e-07	
1388	5.483810e-08	-2.50093e-07	

Index   time            cf              
--------------------------------------------------------------------------------
1389	5.487810e-08	3.134507e-07	
1390	5.491810e-08	-2.50244e-07	
1391	5.495810e-08	3.128934e-07	
1392	5.499810e-08	-2.50390e-07	
1393	5.503810e-08	3.123413e-07	
1394	5.507810e-08	-2.50530e-07	
1395	5.511810e-08	3.117946e-07	
1396	5.515810e-08	-2.50665e-07	
1397	5.519810e-08	3.112529e-07	
1398	5.523810e-08	-2.50793e-07	
1399	5.527810e-08	3.107164e-07	
1400	5.531810e-08	-2.50917e-07	
1401	5.535810e-08	3.101848e-07	
1402	5.539810e-08	-2.51035e-07	
1403	5.543810e-08	3.096582e-07	
1404	5.547810e-08	-2.51148e-07	
1405	5.551810e-08	3.091363e-07	
1406	5.555810e-08	-2.51256e-07	
1407	5.559810e-08	3.086193e-07	
1408	5.563810e-08	-2.51358e-07	
1409	5.567810e-08	3.081069e-07	
1410	5.571810e-08	-2.51456e-07	
1411	5.575810e-08	3.075989e-07	
1412	5.579810e-08	-2.51548e-07	
1413	5.583810e-08	3.070954e-07	
1414	5.587810e-08	-2.51635e-07	
1415	5.591810e-08	3.065962e-07	
1416	5.595810e-08	-2.51717e-07	
1417	5.599810e-08	3.061015e-07	
1418	5.603810e-08	-2.51794e-07	
1419	5.607810e-08	3.056111e-07	
1420	5.611810e-08	-2.51867e-07	
1421	5.615810e-08	3.051250e-07	
1422	5.619810e-08	-2.51935e-07	
1423	5.623810e-08	3.046432e-07	
1424	5.627810e-08	-2.51998e-07	
1425	5.631810e-08	3.041656e-07	
1426	5.635810e-08	-2.52057e-07	
1427	5.639810e-08	3.036921e-07	
1428	5.643810e-08	-2.52111e-07	
1429	5.647810e-08	3.032227e-07	
1430	5.651810e-08	-2.52161e-07	
1431	5.655810e-08	3.027574e-07	
1432	5.659810e-08	-2.52207e-07	
1433	5.663810e-08	3.022959e-07	
1434	5.667810e-08	-2.52248e-07	
1435	5.671810e-08	3.018385e-07	
1436	5.675810e-08	-2.52285e-07	
1437	5.679810e-08	3.013848e-07	
1438	5.683810e-08	-2.52318e-07	
1439	5.687810e-08	3.009350e-07	
1440	5.691810e-08	-2.52347e-07	
1441	5.695810e-08	3.004889e-07	
1442	5.699810e-08	-2.52371e-07	
1443	5.703810e-08	3.000466e-07	
1444	5.707810e-08	-2.52392e-07	
1445	5.711810e-08	2.996078e-07	
1446	5.715810e-08	-2.52409e-07	

Index   time            cf              
--------------------------------------------------------------------------------
1447	5.719810e-08	2.991726e-07	
1448	5.723810e-08	-2.52422e-07	
1449	5.727810e-08	2.987410e-07	
1450	5.731810e-08	-2.52431e-07	
1451	5.735810e-08	2.983126e-07	
1452	5.739810e-08	-2.52436e-07	
1453	5.743810e-08	2.978874e-07	
1454	5.747810e-08	-2.52438e-07	
1455	5.751810e-08	2.974656e-07	
1456	5.755810e-08	-2.52435e-07	
1457	5.759810e-08	2.970471e-07	
1458	5.763810e-08	-2.52429e-07	
1459	5.767810e-08	2.966320e-07	
1460	5.771810e-08	-2.52420e-07	
1461	5.775810e-08	2.962201e-07	
1462	5.779810e-08	-2.52407e-07	
1463	5.783810e-08	2.958114e-07	
1464	5.787810e-08	-2.52390e-07	
1465	5.791810e-08	2.954059e-07	
1466	5.795810e-08	-2.52370e-07	
1467	5.799810e-08	2.950036e-07	
1468	5.803810e-08	-2.52347e-07	
1469	5.807810e-08	2.946043e-07	
1470	5.811810e-08	-2.52320e-07	
1471	5.815810e-08	2.942080e-07	
1472	5.819810e-08	-2.52291e-07	
1473	5.823810e-08	2.938146e-07	
1474	5.827810e-08	-2.52258e-07	
1475	5.831810e-08	2.934242e-07	
1476	5.835810e-08	-2.52221e-07	
1477	5.839810e-08	2.930368e-07	
1478	5.843810e-08	-2.52182e-07	
1479	5.847810e-08	2.926522e-07	
1480	5.851810e-08	-2.52143e-07	
1481	5.855810e-08	2.922671e-07	
1482	5.859810e-08	-2.52090e-07	
1483	5.863810e-08	2.918934e-07	
1484	5.867810e-08	-2.52049e-07	
1485	5.871810e-08	2.915117e-07	
1486	5.875810e-08	-2.51990e-07	
1487	5.879810e-08	2.911431e-07	
1488	5.883810e-08	-2.51943e-07	
1489	5.887810e-08	2.907668e-07	
1490	5.891810e-08	-2.51882e-07	
1491	5.895810e-08	2.904003e-07	
1492	5.899810e-08	-2.51822e-07	
1493	5.903810e-08	2.900344e-07	
1494	5.907810e-08	-2.51763e-07	
1495	5.911810e-08	2.896726e-07	
1496	5.915810e-08	-2.51690e-07	
1497	5.919810e-08	2.893093e-07	
1498	5.923810e-08	-2.51628e-07	
1499	5.927810e-08	2.889531e-07	
1500	5.931810e-08	-2.51551e-07	
1501	5.935810e-08	2.885950e-07	
1502	5.939810e-08	-2.51484e-07	
1503	5.943810e-08	2.882438e-07	
1504	5.947810e-08	-2.51405e-07	

Index   time            cf              
--------------------------------------------------------------------------------
1505	5.951810e-08	2.878919e-07	
1506	5.955810e-08	-2.51326e-07	
1507	5.959810e-08	2.875430e-07	
1508	5.963810e-08	-2.51245e-07	
1509	5.967810e-08	2.871965e-07	
1510	5.971810e-08	-2.51162e-07	
1511	5.975810e-08	2.868526e-07	
1512	5.979810e-08	-2.51076e-07	
1513	5.983810e-08	2.865110e-07	
1514	5.987810e-08	-2.50988e-07	
1515	5.991810e-08	2.861718e-07	
1516	5.995810e-08	-2.50897e-07	
1517	5.999810e-08	2.858347e-07	
1518	6.000000e-08	-2.49536e-07	
1519	6.000000e-08	-8.79302e-03	
1520	6.000000e-08	-2.62682e-02	
1521	6.000000e-08	-6.49689e-02	
1522	6.000000e-08	-9.31834e-02	
1523	6.000000e-08	-9.30932e-02	
1524	6.000000e-08	-9.30712e-02	
1525	6.000000e-08	-9.30277e-02	
1526	6.000000e-08	-9.29427e-02	
1527	6.000000e-08	-9.27757e-02	
1528	6.000000e-08	-9.24471e-02	
1529	6.000000e-08	-9.18045e-02	
1530	6.000000e-08	-9.05653e-02	
1531	6.000000e-08	-8.82377e-02	
1532	6.000000e-08	-8.40668e-02	
1533	6.000000e-08	-7.72009e-02	
1534	6.000001e-08	-6.78375e-02	
1535	6.000001e-08	-5.84322e-02	
1536	6.000002e-08	-5.27388e-02	
1537	6.000004e-08	-5.14119e-02	
1538	6.000008e-08	-5.11478e-02	
1539	6.000014e-08	-5.09249e-02	
1540	6.000025e-08	-5.05149e-02	
1541	6.000049e-08	-4.96880e-02	
1542	6.000095e-08	-4.80306e-02	
1543	6.000188e-08	-4.47665e-02	
1544	6.000374e-08	-3.86737e-02	
1545	6.000745e-08	-2.84126e-02	
1546	6.001489e-08	-1.32249e-02	
1547	6.002976e-08	-4.01871e-04	
1548	6.005950e-08	1.706953e-03	
1549	6.009950e-08	1.184336e-03	
1550	6.013950e-08	1.009101e-03	
1551	6.017950e-08	2.984363e-04	
1552	6.021950e-08	7.783353e-06	
1553	6.025950e-08	2.030154e-04	
1554	6.029950e-08	8.851841e-04	
1555	6.033950e-08	1.591018e-03	
1556	6.037950e-08	2.103336e-03	
1557	6.041950e-08	2.244103e-03	
1558	6.045950e-08	2.029038e-03	
1559	6.049950e-08	1.662160e-03	
1560	6.053950e-08	1.313246e-03	
1561	6.057950e-08	1.034488e-03	
1562	6.061950e-08	7.681931e-04	

Index   time            cf              
--------------------------------------------------------------------------------
1563	6.065950e-08	5.619497e-04	
1564	6.069950e-08	4.028922e-04	
1565	6.073950e-08	3.007920e-04	
1566	6.077950e-08	2.196976e-04	
1567	6.081950e-08	1.744876e-04	
1568	6.085950e-08	1.309870e-04	
1569	6.089950e-08	1.124442e-04	
1570	6.093950e-08	8.660429e-05	
1571	6.097950e-08	8.113929e-05	
1572	6.101950e-08	6.306365e-05	
1573	6.105950e-08	6.217916e-05	
1574	6.109950e-08	4.689055e-05	
1575	6.113950e-08	5.304318e-05	
1576	6.117950e-08	4.059517e-05	
1577	6.121950e-08	4.293360e-05	
1578	6.125950e-08	2.580268e-05	
1579	6.129950e-08	5.028933e-05	
1580	6.133950e-08	-2.61747e-05	
1581	6.137950e-08	-2.93034e-04	
1582	6.140859e-08	1.006028e-04	
1583	6.143646e-08	3.364480e-05	
1584	6.146567e-08	-5.26685e-05	
1585	6.148910e-08	3.024989e-04	
1586	6.151369e-08	8.042493e-06	
1587	6.154410e-08	-2.98028e-05	
1588	6.157576e-08	2.111189e-04	
1589	6.160542e-08	-7.17777e-05	
1590	6.162882e-08	1.420992e-04	
1591	6.165474e-08	1.453546e-04	
1592	6.168210e-08	-1.44242e-04	
1593	6.170296e-08	9.391291e-04	
1594	6.172614e-08	9.216833e-04	
1595	6.175186e-08	-2.22669e-04	
1596	6.178037e-08	2.457205e-03	
1597	6.180718e-08	2.522006e-03	
1598	6.184718e-08	3.715434e-04	
1599	6.188718e-08	2.294357e-04	
1600	6.192718e-08	1.773739e-03	
1601	6.196718e-08	6.411971e-04	
1602	6.200661e-08	-6.21134e-04	
1603	6.204661e-08	5.506461e-04	
1604	6.208661e-08	2.091774e-04	
1605	6.212661e-08	2.281169e-04	
1606	6.216661e-08	5.825620e-05	
1607	6.220661e-08	1.319164e-04	
1608	6.224661e-08	5.695091e-05	
1609	6.228661e-08	1.003393e-04	
1610	6.232661e-08	-1.12963e-05	
1611	6.236661e-08	9.428541e-07	
1612	6.240661e-08	-5.01422e-05	
1613	6.244661e-08	-8.76194e-05	
1614	6.248661e-08	-1.74604e-04	
1615	6.252661e-08	-1.77121e-04	
1616	6.256661e-08	-1.54252e-04	
1617	6.260661e-08	3.202857e-05	
1618	6.264661e-08	1.802657e-04	
1619	6.268661e-08	2.260866e-04	
1620	6.272661e-08	1.353205e-04	

Index   time            cf              
--------------------------------------------------------------------------------
1621	6.276661e-08	1.097335e-04	
1622	6.280661e-08	6.944672e-05	
1623	6.284661e-08	6.491261e-05	
1624	6.288661e-08	5.284377e-05	
1625	6.292661e-08	6.900064e-05	
1626	6.296661e-08	6.917902e-05	
1627	6.300661e-08	9.223333e-05	
1628	6.304661e-08	8.908703e-05	
1629	6.308661e-08	9.787874e-05	
1630	6.312661e-08	7.525337e-05	
1631	6.316661e-08	6.897311e-05	
1632	6.320661e-08	4.211161e-05	
1633	6.324661e-08	3.984595e-05	
1634	6.328661e-08	1.907455e-05	
1635	6.332661e-08	2.336084e-05	
1636	6.336661e-08	9.852814e-06	
1637	6.340661e-08	1.822156e-05	
1638	6.344661e-08	-5.32866e-05	
1639	6.348661e-08	2.453969e-04	
1640	6.352661e-08	1.106647e-03	
1641	6.356661e-08	-4.47661e-03	
1642	6.360661e-08	-4.83583e-03	
1643	6.364661e-08	4.859142e-04	
1644	6.368661e-08	-1.38449e-05	
1645	6.372661e-08	3.572377e-05	
1646	6.376661e-08	3.280724e-05	
1647	6.380661e-08	2.550547e-05	
1648	6.384661e-08	5.593775e-05	
1649	6.388661e-08	6.189106e-05	
1650	6.392661e-08	6.527732e-05	
1651	6.396661e-08	-2.78704e-04	
1652	6.400661e-08	-1.02783e-03	
1653	6.404661e-08	-1.19951e-03	
1654	6.408661e-08	2.366076e-04	
1655	6.412661e-08	1.677635e-03	
1656	6.416661e-08	1.911720e-03	
1657	6.420661e-08	1.657956e-03	
1658	6.424661e-08	1.326145e-03	
1659	6.428661e-08	9.751260e-04	
1660	6.432661e-08	7.553975e-04	
1661	6.436661e-08	5.496275e-04	
1662	6.440661e-08	2.471488e-04	
1663	6.444661e-08	1.240952e-04	
1664	6.448661e-08	2.910179e-05	
1665	6.452661e-08	8.290482e-06	
1666	6.456661e-08	-2.13369e-05	
1667	6.460661e-08	-1.37743e-05	
1668	6.464661e-08	-2.34274e-05	
1669	6.468661e-08	-8.32988e-06	
1670	6.472661e-08	-1.58248e-05	
1671	6.476661e-08	-2.45778e-06	
1672	6.480661e-08	-1.12163e-05	
1673	6.484661e-08	2.885163e-06	
1674	6.488661e-08	5.825065e-07	
1675	6.492661e-08	7.784533e-06	
1676	6.496661e-08	-2.61940e-05	
1677	6.500661e-08	7.230863e-05	
1678	6.503331e-08	2.460205e-04	

Index   time            cf              
--------------------------------------------------------------------------------
1679	6.505840e-08	3.435029e-05	
1680	6.508337e-08	-2.31921e-04	
1681	6.510082e-08	5.484621e-05	
1682	6.512075e-08	1.380914e-04	
1683	6.514225e-08	-2.28856e-04	
1684	6.516568e-08	-2.66247e-04	
1685	6.518937e-08	1.425219e-04	
1686	6.521504e-08	-4.15111e-05	
1687	6.524202e-08	-2.61531e-04	
1688	6.526227e-08	7.615884e-05	
1689	6.528562e-08	2.747294e-05	
1690	6.531416e-08	-2.89845e-04	
1691	6.533990e-08	2.884483e-04	
1692	6.536701e-08	-8.26942e-04	
1693	6.540079e-08	-1.06221e-03	
1694	6.543873e-08	-1.25768e-03	
1695	6.547842e-08	-2.66918e-03	
1696	6.551842e-08	-2.56708e-04	
1697	6.555842e-08	3.813823e-04	
1698	6.559842e-08	-2.62425e-03	
1699	6.563014e-08	-3.75135e-04	
1700	6.566403e-08	3.653531e-04	
1701	6.570403e-08	-1.15781e-04	
1702	6.574403e-08	2.598452e-04	
1703	6.578403e-08	-7.21721e-05	
1704	6.582403e-08	1.818370e-04	
1705	6.586403e-08	-9.49729e-05	
1706	6.590403e-08	-3.30529e-05	
1707	6.594403e-08	-3.41927e-04	
1708	6.598403e-08	-3.25324e-04	
1709	6.602403e-08	-4.86269e-04	
1710	6.606403e-08	-4.62886e-04	
1711	6.610403e-08	-5.25916e-04	
1712	6.614403e-08	-2.37733e-04	
1713	6.618403e-08	2.753654e-04	
1714	6.622403e-08	7.377118e-04	
1715	6.626403e-08	6.451189e-04	
1716	6.630403e-08	9.964180e-05	
1717	6.634403e-08	-2.22234e-04	
1718	6.638403e-08	2.094224e-05	
1719	6.642403e-08	6.795246e-04	
1720	6.646403e-08	8.206065e-04	
1721	6.650403e-08	1.186546e-04	
1722	6.654403e-08	-4.12318e-04	
1723	6.658403e-08	-3.68524e-04	
1724	6.662403e-08	-2.31542e-04	
1725	6.666403e-08	-1.43583e-04	
1726	6.670403e-08	-9.16094e-05	
1727	6.674403e-08	-5.66683e-05	
1728	6.678403e-08	-5.10439e-05	
1729	6.682403e-08	-3.70321e-05	
1730	6.686403e-08	-4.54165e-05	
1731	6.690403e-08	-3.71454e-05	
1732	6.694403e-08	-5.15484e-05	
1733	6.698403e-08	-4.66323e-05	
1734	6.702403e-08	-6.83843e-05	
1735	6.706403e-08	-6.84803e-05	
1736	6.710403e-08	-8.10330e-05	

Index   time            cf              
--------------------------------------------------------------------------------
1737	6.714403e-08	-5.69868e-05	
1738	6.718403e-08	-4.97290e-05	
1739	6.722403e-08	-5.96383e-06	
1740	6.726403e-08	2.074026e-05	
1741	6.730403e-08	5.666581e-07	
1742	6.734403e-08	-1.42553e-04	
1743	6.738403e-08	-8.33943e-05	
1744	6.742403e-08	2.612905e-05	
1745	6.746403e-08	3.318881e-05	
1746	6.750403e-08	7.764943e-06	
1747	6.754403e-08	2.902172e-05	
1748	6.758403e-08	1.006166e-05	
1749	6.762403e-08	1.774408e-05	
1750	6.766403e-08	2.383220e-05	
1751	6.770403e-08	5.435307e-05	
1752	6.774403e-08	-4.66547e-04	
1753	6.778403e-08	1.544417e-03	
1754	6.782403e-08	5.519987e-03	
1755	6.786403e-08	1.336537e-03	
1756	6.790403e-08	-4.84770e-04	
1757	6.794403e-08	2.287007e-04	
1758	6.798403e-08	-1.44893e-04	
1759	6.802403e-08	1.134239e-04	
1760	6.806403e-08	-2.27822e-04	
1761	6.810403e-08	-6.91483e-04	
1762	6.814403e-08	-1.19637e-03	
1763	6.818403e-08	4.052217e-04	
1764	6.822403e-08	1.179950e-03	
1765	6.826403e-08	8.152822e-04	
1766	6.830403e-08	8.251627e-04	
1767	6.834403e-08	1.128394e-04	
1768	6.838403e-08	-1.47694e-03	
1769	6.842403e-08	-2.98712e-03	
1770	6.846403e-08	-3.29092e-03	
1771	6.850403e-08	-1.25108e-03	
1772	6.854403e-08	1.990435e-04	
1773	6.858403e-08	1.669758e-04	
1774	6.862403e-08	9.961108e-05	
1775	6.866403e-08	6.069013e-05	
1776	6.870403e-08	3.391724e-05	
1777	6.874403e-08	2.228479e-05	
1778	6.878403e-08	1.126591e-05	
1779	6.882403e-08	1.079252e-05	
1780	6.886403e-08	3.178245e-06	
1781	6.890403e-08	7.340877e-06	
1782	6.894403e-08	2.879881e-07	
1783	6.898403e-08	6.922802e-06	
1784	6.902403e-08	-6.74948e-09	
1785	6.906403e-08	6.909608e-06	
1786	6.910403e-08	-1.87176e-06	
1787	6.914403e-08	7.900864e-06	
1788	6.918403e-08	7.746047e-07	
1789	6.922403e-08	6.900711e-06	
1790	6.926403e-08	-7.49482e-06	
1791	6.930403e-08	1.235861e-05	
1792	6.934403e-08	1.109304e-05	
1793	6.938403e-08	-3.75919e-04	
1794	6.941863e-08	3.313121e-05	

Index   time            cf              
--------------------------------------------------------------------------------
1795	6.945276e-08	6.353200e-05	
1796	6.948383e-08	-9.25647e-05	
1797	6.950727e-08	2.689246e-04	
1798	6.953259e-08	9.379831e-06	
1799	6.956460e-08	-6.90934e-05	
1800	6.959918e-08	1.774865e-04	
1801	6.963352e-08	-6.75778e-05	
1802	6.966004e-08	1.825611e-04	
1803	6.968772e-08	-4.23907e-05	
1804	6.971800e-08	1.861161e-04	
1805	6.974387e-08	1.112800e-03	
1806	6.977087e-08	-1.20336e-04	
1807	6.980211e-08	1.280611e-03	
1808	6.983542e-08	2.690173e-03	
1809	6.987542e-08	6.262101e-04	
1810	6.991542e-08	2.159258e-04	
1811	6.995542e-08	1.661851e-03	
1812	6.999542e-08	6.711729e-04	
1813	7.003542e-08	-5.26113e-04	
1814	7.007542e-08	3.123984e-04	
1815	7.011542e-08	3.451346e-04	
1816	7.015542e-08	1.494372e-04	
1817	7.019542e-08	1.117526e-04	
1818	7.023542e-08	8.270636e-05	
1819	7.027542e-08	7.490955e-05	
1820	7.031542e-08	2.261625e-05	
1821	7.035542e-08	6.152849e-05	
1822	7.039542e-08	3.066494e-05	
1823	7.043542e-08	-4.29168e-05	
1824	7.047542e-08	-1.33503e-04	
1825	7.051542e-08	-1.82088e-04	
1826	7.055542e-08	-1.77965e-04	
1827	7.059542e-08	-1.12355e-04	
1828	7.063542e-08	-3.07265e-05	
1829	7.067542e-08	1.591508e-04	
1830	7.071542e-08	2.267338e-04	
1831	7.075542e-08	1.537240e-04	
1832	7.079542e-08	9.520330e-05	
1833	7.083542e-08	7.576571e-05	
1834	7.087542e-08	4.793987e-05	
1835	7.091542e-08	6.363935e-05	
1836	7.095542e-08	5.575343e-05	
1837	7.099542e-08	8.253987e-05	
1838	7.103542e-08	7.616314e-05	
1839	7.107542e-08	9.027016e-05	
1840	7.111542e-08	6.604178e-05	
1841	7.115542e-08	6.357184e-05	
1842	7.119542e-08	3.429836e-05	
1843	7.123542e-08	3.483918e-05	
1844	7.127542e-08	1.161757e-05	
1845	7.131542e-08	1.841554e-05	
1846	7.135542e-08	2.045633e-06	
1847	7.139542e-08	1.475482e-05	
1848	7.143542e-08	-5.01840e-05	
1849	7.147542e-08	1.648446e-04	
1850	7.151542e-08	1.048723e-03	
1851	7.155542e-08	-3.83569e-03	
1852	7.159542e-08	-5.30564e-03	

Index   time            cf              
--------------------------------------------------------------------------------
1853	7.163542e-08	3.448113e-04	
1854	7.167542e-08	1.107560e-04	
1855	7.171542e-08	-7.59504e-05	
1856	7.175542e-08	1.131488e-04	
1857	7.179542e-08	-4.81126e-05	
1858	7.183542e-08	1.029612e-04	
1859	7.187542e-08	1.381923e-05	
1860	7.191542e-08	9.790202e-05	
1861	7.195542e-08	-2.45097e-04	
1862	7.199542e-08	-9.54231e-04	
1863	7.203542e-08	-1.29114e-03	
1864	7.207542e-08	9.246005e-05	
1865	7.211542e-08	1.579833e-03	
1866	7.215542e-08	1.931656e-03	
1867	7.219542e-08	1.674286e-03	
1868	7.223542e-08	1.362700e-03	
1869	7.227542e-08	9.960650e-04	
1870	7.231542e-08	7.709525e-04	
1871	7.235542e-08	5.715473e-04	
1872	7.239542e-08	2.670675e-04	
1873	7.243542e-08	1.282210e-04	
1874	7.247542e-08	3.258093e-05	
1875	7.251542e-08	5.721433e-06	
1876	7.255542e-08	-2.28555e-05	
1877	7.259542e-08	-1.77598e-05	
1878	7.263542e-08	-2.67336e-05	
1879	7.267542e-08	-1.20948e-05	
1880	7.271542e-08	-1.93334e-05	
1881	7.275542e-08	-5.66444e-06	
1882	7.279542e-08	-1.48334e-05	
1883	7.283542e-08	-8.27650e-07	
1884	7.287542e-08	-3.15938e-06	
1885	7.291542e-08	7.223029e-06	
1886	7.295542e-08	-2.63281e-05	
1887	7.299542e-08	2.488458e-05	
1888	7.302324e-08	2.207305e-04	
1889	7.305009e-08	1.102122e-04	
1890	7.307465e-08	-2.49032e-04	
1891	7.309148e-08	-5.22194e-05	
1892	7.311204e-08	1.862688e-04	
1893	7.313003e-08	1.928817e-07	
1894	7.315276e-08	-3.78118e-04	
1895	7.316941e-08	-1.88567e-04	
1896	7.319186e-08	1.737197e-04	
1897	7.321363e-08	-1.18500e-05	
1898	7.323991e-08	-2.96005e-04	
1899	7.325966e-08	1.434601e-05	
1900	7.328148e-08	1.019771e-04	
1901	7.330677e-08	-3.00555e-04	
1902	7.333379e-08	3.099375e-05	
1903	7.336159e-08	-2.26532e-05	
1904	7.338951e-08	-1.64681e-03	
1905	7.342074e-08	-4.39812e-05	
1906	7.345347e-08	-1.33996e-03	
1907	7.349347e-08	-2.89354e-03	
1908	7.353347e-08	-1.50999e-05	
1909	7.357347e-08	1.659000e-04	
1910	7.361347e-08	-2.37364e-03	

Index   time            cf              
--------------------------------------------------------------------------------
1911	7.364693e-08	-4.47936e-04	
1912	7.368146e-08	4.007216e-04	
1913	7.372146e-08	-1.35908e-04	
1914	7.376146e-08	2.732215e-04	
1915	7.380146e-08	-7.82496e-05	
1916	7.384146e-08	1.845367e-04	
1917	7.388146e-08	-9.69216e-05	
1918	7.392146e-08	-3.42259e-05	
1919	7.396146e-08	-3.46545e-04	
1920	7.400146e-08	-3.25117e-04	
1921	7.404146e-08	-4.93660e-04	
1922	7.408146e-08	-4.67341e-04	
1923	7.412146e-08	-5.26594e-04	
1924	7.416146e-08	-2.40293e-04	
1925	7.420146e-08	2.784301e-04	
1926	7.424146e-08	7.345297e-04	
1927	7.428146e-08	6.464989e-04	
1928	7.432146e-08	9.927893e-05	
1929	7.436146e-08	-2.18033e-04	
1930	7.440146e-08	2.004455e-05	
1931	7.444146e-08	6.764587e-04	
1932	7.448146e-08	8.134445e-04	
1933	7.452146e-08	1.130286e-04	
1934	7.456146e-08	-4.19845e-04	
1935	7.460146e-08	-3.75542e-04	
1936	7.464146e-08	-2.32887e-04	
1937	7.468146e-08	-1.21772e-04	
1938	7.472146e-08	-5.95233e-05	
1939	7.476146e-08	-3.45870e-05	
1940	7.480146e-08	-3.71777e-05	
1941	7.484146e-08	-2.62647e-05	
1942	7.488146e-08	-3.70287e-05	
1943	7.492146e-08	-2.97636e-05	
1944	7.496146e-08	-4.58892e-05	
1945	7.500146e-08	-4.34648e-05	
1946	7.504146e-08	-7.12749e-05	
1947	7.508146e-08	-7.84906e-05	
1948	7.512146e-08	-1.00132e-04	
1949	7.516146e-08	-8.44033e-05	
1950	7.520146e-08	-8.49502e-05	
1951	7.524146e-08	-4.86680e-05	
1952	7.528146e-08	-2.86593e-05	
1953	7.532146e-08	-3.61281e-05	
1954	7.536146e-08	-1.18682e-04	
1955	7.540146e-08	1.142934e-05	
1956	7.544146e-08	1.142105e-04	
1957	7.548146e-08	9.977980e-05	
1958	7.552146e-08	6.656299e-05	
1959	7.556146e-08	6.124375e-05	
1960	7.560146e-08	2.365532e-05	
1961	7.564146e-08	2.699617e-05	
1962	7.568146e-08	4.216865e-05	
1963	7.572146e-08	6.642474e-05	
1964	7.576146e-08	-4.64155e-04	
1965	7.580146e-08	1.550407e-03	
1966	7.584146e-08	5.521737e-03	
1967	7.588146e-08	1.335046e-03	
1968	7.592146e-08	-4.87980e-04	

Index   time            cf              
--------------------------------------------------------------------------------
1969	7.596146e-08	2.311438e-04	
1970	7.600146e-08	-1.41268e-04	
1971	7.604146e-08	1.125562e-04	
1972	7.608146e-08	-2.29086e-04	
1973	7.612146e-08	-6.93289e-04	
1974	7.616146e-08	-1.19783e-03	
1975	7.620146e-08	4.046352e-04	
1976	7.624146e-08	1.178247e-03	
1977	7.628146e-08	8.139914e-04	
1978	7.632146e-08	8.231523e-04	
1979	7.636146e-08	1.088510e-04	
1980	7.640146e-08	-1.48404e-03	
1981	7.644146e-08	-2.99485e-03	
1982	7.648146e-08	-3.29095e-03	
1983	7.652146e-08	-1.24416e-03	
1984	7.656146e-08	1.994770e-04	
1985	7.660146e-08	1.653183e-04	
1986	7.664146e-08	9.805026e-05	
1987	7.668146e-08	5.952786e-05	
1988	7.672146e-08	3.227092e-05	
1989	7.676146e-08	2.103267e-05	
1990	7.680146e-08	9.616587e-06	
1991	7.684146e-08	9.455977e-06	
1992	7.688146e-08	1.535335e-06	
1993	7.692146e-08	5.980991e-06	
1994	7.696146e-08	-1.29594e-06	
1995	7.700146e-08	5.724365e-06	
1996	7.704146e-08	-1.64407e-06	
1997	7.708146e-08	5.088447e-06	
1998	7.712146e-08	-4.03642e-06	
1999	7.716146e-08	6.305852e-06	
2000	7.720146e-08	-9.22463e-07	
2001	7.724146e-08	5.297871e-06	
2002	7.728146e-08	-9.98278e-06	
2003	7.732146e-08	1.064373e-05	
2004	7.736146e-08	1.361377e-05	
2005	7.740146e-08	-3.71277e-04	
2006	7.744146e-08	8.081720e-05	
2007	7.747894e-08	9.330659e-06	
2008	7.751687e-08	-6.63695e-06	
2009	7.755213e-08	1.718705e-04	
2010	7.758399e-08	-1.32458e-04	
2011	7.761846e-08	2.192675e-04	
2012	7.765037e-08	-8.67664e-05	
2013	7.768106e-08	6.373811e-05	
2014	7.770873e-08	1.789297e-04	
2015	7.773786e-08	-2.89246e-04	
2016	7.776018e-08	6.455507e-04	
2017	7.778575e-08	1.030135e-03	
2018	7.781252e-08	-4.42366e-04	
2019	7.784232e-08	1.630708e-03	
2020	7.787261e-08	2.707970e-03	
2021	7.791261e-08	5.042320e-04	
2022	7.795261e-08	3.655582e-04	
2023	7.799261e-08	1.424789e-03	
2024	7.803261e-08	8.243385e-04	
2025	7.807261e-08	-4.83375e-04	
2026	7.811261e-08	1.523949e-04	

Index   time            cf              
--------------------------------------------------------------------------------
2027	7.815261e-08	4.155818e-04	
2028	7.819261e-08	1.388204e-04	
2029	7.823261e-08	1.378436e-04	
2030	7.827261e-08	7.032683e-05	
2031	7.831261e-08	8.226530e-05	
2032	7.835261e-08	1.303157e-05	
2033	7.839261e-08	7.750256e-05	
2034	7.843261e-08	3.856513e-05	
2035	7.847261e-08	-2.43202e-05	
2036	7.851261e-08	-1.31364e-04	
2037	7.855261e-08	-1.57279e-04	
2038	7.859261e-08	-1.79333e-04	
2039	7.863261e-08	-1.36293e-04	
2040	7.867261e-08	-5.71310e-05	
2041	7.871261e-08	1.275198e-04	
2042	7.875261e-08	2.303798e-04	
2043	7.879261e-08	1.708621e-04	
2044	7.883261e-08	9.942633e-05	
2045	7.887261e-08	8.050014e-05	
2046	7.891261e-08	4.868232e-05	
2047	7.895261e-08	6.387732e-05	
2048	7.899261e-08	5.507000e-05	
2049	7.903261e-08	8.159956e-05	
2050	7.907261e-08	7.438293e-05	
2051	7.911261e-08	8.774459e-05	
2052	7.915261e-08	6.272147e-05	
2053	7.919261e-08	6.036930e-05	
2054	7.923261e-08	3.133430e-05	
2055	7.927261e-08	3.237926e-05	
2056	7.931261e-08	9.437544e-06	
2057	7.935261e-08	1.664270e-05	
2058	7.939261e-08	1.010768e-06	
2059	7.943261e-08	1.232201e-05	
2060	7.947261e-08	-6.00943e-05	
2061	7.951261e-08	2.299350e-04	
2062	7.955261e-08	1.094171e-03	
2063	7.959261e-08	-4.40943e-03	
2064	7.963261e-08	-4.89669e-03	
2065	7.967261e-08	4.665761e-04	
2066	7.971261e-08	-5.87121e-06	
2067	7.975261e-08	1.856519e-05	
2068	7.979261e-08	3.623626e-05	
2069	7.983261e-08	1.249732e-05	
2070	7.987261e-08	5.594515e-05	
2071	7.991261e-08	5.175968e-05	
2072	7.995261e-08	6.371714e-05	
2073	7.999261e-08	-2.79689e-04	
2074	8.003261e-08	-1.02511e-03	
2075	8.007261e-08	-1.21533e-03	
2076	8.011261e-08	2.156165e-04	
2077	8.015261e-08	1.663792e-03	
2078	8.019261e-08	1.909558e-03	
2079	8.023261e-08	1.656441e-03	
2080	8.027261e-08	1.325693e-03	
2081	8.031261e-08	9.731877e-04	
2082	8.035261e-08	7.524077e-04	
2083	8.039261e-08	5.481904e-04	
2084	8.043261e-08	2.443629e-04	

Index   time            cf              
--------------------------------------------------------------------------------
2085	8.047261e-08	1.208117e-04	
2086	8.051261e-08	2.496108e-05	
2087	8.055261e-08	4.440835e-06	
2088	8.059261e-08	-2.58694e-05	
2089	8.063261e-08	-1.77512e-05	
2090	8.067261e-08	-2.80945e-05	
2091	8.071261e-08	-1.21911e-05	
2092	8.075261e-08	-2.03601e-05	
2093	8.079261e-08	-6.14700e-06	
2094	8.083261e-08	-1.58637e-05	
2095	8.087261e-08	-9.83293e-07	
2096	8.091261e-08	-3.47102e-06	
2097	8.095261e-08	5.544749e-06	
2098	8.099261e-08	-3.22217e-05	
2099	8.103261e-08	4.436619e-05	
2100	8.105826e-08	2.251369e-04	
2101	8.108364e-08	9.843689e-05	
2102	8.110784e-08	-2.55142e-04	
2103	8.112474e-08	-6.36904e-05	
2104	8.114512e-08	1.890153e-04	
2105	8.116330e-08	4.094196e-05	
2106	8.118632e-08	-3.57641e-04	
2107	8.120335e-08	-2.42401e-04	
2108	8.122725e-08	1.665919e-04	
2109	8.125211e-08	1.409570e-05	
2110	8.127884e-08	-3.04907e-04	
2111	8.129924e-08	5.213278e-06	
2112	8.132151e-08	1.143534e-04	
2113	8.134664e-08	-2.62219e-04	
2114	8.137408e-08	-2.36516e-05	
2115	8.140410e-08	5.299704e-06	
2116	8.143345e-08	-1.59180e-03	
2117	8.146598e-08	-1.86390e-05	
2118	8.150059e-08	-1.40454e-03	
2119	8.154059e-08	-2.75712e-03	
2120	8.158059e-08	4.185132e-05	
2121	8.162059e-08	8.868114e-05	
2122	8.166059e-08	-2.17717e-03	
2123	8.170059e-08	-3.04417e-04	
2124	8.173733e-08	3.702797e-04	
2125	8.177733e-08	-1.23036e-04	
2126	8.181733e-08	2.542749e-04	
2127	8.185733e-08	-7.22864e-05	
2128	8.189733e-08	1.704858e-04	
2129	8.193733e-08	-9.97179e-05	
2130	8.197733e-08	-6.87012e-05	
2131	8.201733e-08	-3.32367e-04	
2132	8.205733e-08	-3.39879e-04	
2133	8.209733e-08	-5.08382e-04	
2134	8.213733e-08	-4.62906e-04	
2135	8.217733e-08	-5.16286e-04	
2136	8.221733e-08	-1.92464e-04	
2137	8.225733e-08	3.364167e-04	
2138	8.229733e-08	7.605364e-04	
2139	8.233733e-08	5.970085e-04	
2140	8.237733e-08	5.316626e-05	
2141	8.241733e-08	-2.58806e-04	
2142	8.245733e-08	8.118892e-05	

Index   time            cf              
--------------------------------------------------------------------------------
2143	8.249733e-08	7.407318e-04	
2144	8.253733e-08	7.660282e-04	
2145	8.257733e-08	4.693621e-05	
2146	8.261733e-08	-4.42230e-04	
2147	8.265733e-08	-3.62751e-04	
2148	8.269733e-08	-2.35509e-04	
2149	8.273733e-08	-1.46765e-04	
2150	8.277733e-08	-1.00169e-04	
2151	8.281733e-08	-6.55744e-05	
2152	8.285733e-08	-5.98534e-05	
2153	8.289733e-08	-4.53022e-05	
2154	8.293733e-08	-5.40756e-05	
2155	8.297733e-08	-4.61302e-05	
2156	8.301733e-08	-6.22423e-05	
2157	8.305733e-08	-6.10803e-05	
2158	8.309733e-08	-8.28054e-05	
2159	8.313733e-08	-6.86731e-05	
2160	8.317733e-08	-6.69484e-05	
2161	8.321733e-08	-3.34628e-05	
2162	8.325733e-08	-1.25128e-05	
2163	8.329733e-08	3.424816e-05	
2164	8.333733e-08	-3.46152e-05	
2165	8.337733e-08	-1.52637e-04	
2166	8.341733e-08	-6.24987e-05	
2167	8.345733e-08	4.613359e-05	
2168	8.349733e-08	8.745001e-06	
2169	8.353733e-08	2.335532e-05	
2170	8.357733e-08	1.231812e-05	
2171	8.361733e-08	2.011949e-05	
2172	8.365733e-08	3.132673e-06	
2173	8.369733e-08	3.295288e-05	
2174	8.373733e-08	4.084754e-05	
2175	8.377733e-08	-4.58732e-04	
2176	8.381733e-08	1.539270e-03	
2177	8.385733e-08	5.526397e-03	
2178	8.389733e-08	1.317650e-03	
2179	8.393733e-08	-4.73807e-04	
2180	8.397733e-08	2.144040e-04	
2181	8.401733e-08	-1.35035e-04	
2182	8.405733e-08	9.979166e-05	
2183	8.409733e-08	-2.13273e-04	
2184	8.413733e-08	-7.11146e-04	
2185	8.417733e-08	-1.18782e-03	
2186	8.421733e-08	3.985517e-04	
2187	8.425733e-08	1.185688e-03	
2188	8.429733e-08	8.040901e-04	
2189	8.433733e-08	8.320668e-04	
2190	8.437733e-08	9.948501e-05	
2191	8.441733e-08	-1.47187e-03	
2192	8.445733e-08	-3.00748e-03	
2193	8.449733e-08	-3.27935e-03	
2194	8.453733e-08	-1.25786e-03	
2195	8.457733e-08	2.107204e-04	
2196	8.461733e-08	1.549925e-04	
2197	8.465733e-08	1.075458e-04	
2198	8.469733e-08	4.899849e-05	
2199	8.473733e-08	4.200810e-05	
2200	8.477733e-08	1.044772e-05	

Index   time            cf              
--------------------------------------------------------------------------------
2201	8.481733e-08	1.965793e-05	
2202	8.485733e-08	-1.11982e-06	
2203	8.489733e-08	1.189066e-05	
2204	8.493733e-08	-4.77516e-06	
2205	8.497733e-08	9.164199e-06	
2206	8.501733e-08	-5.31991e-06	
2207	8.505733e-08	8.985230e-06	
2208	8.509733e-08	-5.40141e-06	
2209	8.513733e-08	7.180527e-06	
2210	8.517733e-08	-4.39488e-06	
2211	8.521733e-08	1.000767e-05	
2212	8.525733e-08	-5.28667e-06	
2213	8.529733e-08	1.260849e-06	
2214	8.533733e-08	4.462583e-09	
2215	8.537733e-08	2.248334e-05	
2216	8.541156e-08	-3.74582e-04	
2217	8.543817e-08	-1.35104e-04	
2218	8.546895e-08	1.765797e-04	
2219	8.549666e-08	-1.32643e-04	
2220	8.552614e-08	2.283003e-05	
2221	8.555330e-08	2.588838e-04	
2222	8.558154e-08	-9.54438e-05	
2223	8.561211e-08	-1.61411e-05	
2224	8.564501e-08	1.993441e-04	
2225	8.567497e-08	-1.17898e-04	
2226	8.569962e-08	6.287604e-05	
2227	8.572729e-08	2.002365e-04	
2228	8.575520e-08	-3.65341e-04	
2229	8.577903e-08	3.858687e-04	
2230	8.580598e-08	1.153489e-03	
2231	8.583385e-08	-1.48320e-04	
2232	8.586505e-08	1.050603e-03	
2233	8.590131e-08	2.573503e-03	
2234	8.594131e-08	6.045235e-04	
2235	8.598131e-08	3.168318e-04	
2236	8.602131e-08	1.324619e-03	
2237	8.606131e-08	8.917460e-04	
2238	8.610131e-08	-4.33694e-04	
2239	8.614131e-08	5.469475e-05	
2240	8.618131e-08	4.357580e-04	
2241	8.622131e-08	1.494191e-04	
2242	8.626131e-08	1.443393e-04	
2243	8.630131e-08	7.352425e-05	
2244	8.634131e-08	7.958954e-05	
2245	8.638131e-08	1.925277e-05	
2246	8.642131e-08	7.275604e-05	
2247	8.646131e-08	5.381791e-05	
2248	8.650131e-08	-2.35770e-05	
2249	8.654131e-08	-1.12942e-04	
2250	8.658131e-08	-1.59149e-04	
2251	8.662131e-08	-1.67952e-04	
2252	8.666131e-08	-1.58839e-04	
2253	8.670131e-08	-5.89115e-05	
2254	8.674131e-08	9.304573e-05	
2255	8.678131e-08	2.385445e-04	
2256	8.682131e-08	1.733213e-04	
2257	8.686131e-08	1.143247e-04	
2258	8.690131e-08	7.314297e-05	

Index   time            cf              
--------------------------------------------------------------------------------
2259	8.694131e-08	6.124838e-05	
2260	8.698131e-08	5.280741e-05	
2261	8.702131e-08	6.633775e-05	
2262	8.706131e-08	6.955365e-05	
2263	8.710131e-08	8.518223e-05	
2264	8.714131e-08	7.551127e-05	
2265	8.718131e-08	7.342473e-05	
2266	8.722131e-08	4.825106e-05	
2267	8.726131e-08	4.235727e-05	
2268	8.730131e-08	2.011124e-05	
2269	8.734131e-08	2.090494e-05	
2270	8.738131e-08	4.215224e-06	
2271	8.742131e-08	1.274245e-05	
2272	8.746131e-08	-1.07513e-07	
2273	8.750131e-08	-4.78762e-05	
2274	8.754131e-08	2.181672e-04	
2275	8.758131e-08	1.106334e-03	
2276	8.762131e-08	-4.42676e-03	
2277	8.766131e-08	-4.88153e-03	
2278	8.770131e-08	4.558573e-04	
2279	8.774131e-08	4.766194e-06	
2280	8.778131e-08	7.418506e-06	
2281	8.782131e-08	4.631779e-05	
2282	8.786131e-08	1.582415e-06	
2283	8.790131e-08	6.642734e-05	
2284	8.794131e-08	4.081231e-05	
2285	8.798131e-08	7.430282e-05	
2286	8.802131e-08	-2.92283e-04	
2287	8.806131e-08	-1.01287e-03	
2288	8.810131e-08	-1.22835e-03	
2289	8.814131e-08	2.291193e-04	
2290	8.818131e-08	1.653674e-03	
2291	8.822131e-08	1.919509e-03	
2292	8.826131e-08	1.645864e-03	
2293	8.830131e-08	1.335727e-03	
2294	8.834131e-08	9.619048e-04	
2295	8.838131e-08	7.630267e-04	
2296	8.842131e-08	5.366337e-04	
2297	8.846131e-08	2.550152e-04	
2298	8.850131e-08	1.093616e-04	
2299	8.854131e-08	3.603091e-05	
2300	8.858131e-08	-7.29478e-06	
2301	8.862131e-08	-1.38341e-05	
2302	8.866131e-08	-3.04418e-05	
2303	8.870131e-08	-1.54871e-05	
2304	8.874131e-08	-2.49546e-05	
2305	8.878131e-08	-7.78552e-06	
2306	8.882131e-08	-1.87530e-05	
2307	8.886131e-08	-3.59645e-06	
2308	8.890131e-08	-1.35189e-05	
2309	8.894131e-08	8.815180e-06	
2310	8.898131e-08	-6.01904e-06	
2311	8.902131e-08	-2.01350e-05	
2312	8.906131e-08	2.591367e-05	
2313	8.908733e-08	2.284008e-04	
2314	8.911249e-08	1.058451e-04	
2315	8.913642e-08	-2.34476e-04	
2316	8.915539e-08	-9.62611e-05	

Index   time            cf              
--------------------------------------------------------------------------------
2317	8.917573e-08	1.949877e-04	
2318	8.919524e-08	6.247578e-05	
2319	8.921911e-08	-3.15791e-04	
2320	8.924163e-08	-2.12181e-04	
2321	8.926439e-08	1.723273e-04	
2322	8.929072e-08	-1.26697e-05	
2323	8.931980e-08	-2.69988e-04	
2324	8.934012e-08	1.163574e-05	
2325	8.936455e-08	9.456181e-05	
2326	8.939264e-08	-3.22576e-04	
2327	8.942228e-08	1.255784e-04	
2328	8.945131e-08	-1.71233e-04	
2329	8.948244e-08	-1.56237e-03	
2330	8.951576e-08	3.735985e-04	
2331	8.955014e-08	-2.03079e-03	
2332	8.959014e-08	-2.41036e-03	
2333	8.963014e-08	2.077547e-04	
2334	8.967014e-08	-9.39218e-05	
2335	8.971014e-08	-1.92469e-03	
2336	8.974543e-08	-6.70334e-04	
2337	8.978250e-08	4.623384e-04	
2338	8.982250e-08	-1.52846e-04	
2339	8.986250e-08	2.807266e-04	
2340	8.990250e-08	-8.25242e-05	
2341	8.994250e-08	1.852798e-04	
2342	8.998250e-08	-9.73456e-05	
2343	9.002250e-08	-4.70086e-05	
2344	9.006250e-08	-3.27688e-04	
2345	9.010250e-08	-3.24926e-04	
2346	9.014250e-08	-5.15841e-04	
2347	9.018250e-08	-4.55562e-04	
2348	9.022250e-08	-5.35747e-04	
2349	9.026250e-08	-2.29265e-04	
[...]
7671	2.992417e-07	1.399636e+00	
7672	2.992817e-07	1.399641e+00	
7673	2.993217e-07	1.399462e+00	
7674	2.993617e-07	1.399246e+00	
7675	2.994017e-07	1.399320e+00	
7676	2.994417e-07	1.400359e+00	
7677	2.994817e-07	1.402367e+00	
7678	2.995217e-07	1.403840e+00	
7679	2.995617e-07	1.407438e+00	
7680	2.996017e-07	1.413057e+00	
7681	2.996417e-07	1.409643e+00	
7682	2.996817e-07	1.407684e+00	
7683	2.997217e-07	1.407872e+00	
7684	2.997617e-07	1.405954e+00	
7685	2.998017e-07	1.403568e+00	
7686	2.998417e-07	1.400526e+00	
7687	2.998817e-07	1.398478e+00	
7688	2.999217e-07	1.397351e+00	
7689	2.999617e-07	1.396908e+00	
7690	3.000017e-07	1.394432e+00	
7691	3.000417e-07	1.392824e+00	
7692	3.000817e-07	1.394047e+00	
7693	3.001217e-07	1.394812e+00	
7694	3.001617e-07	1.393895e+00	
7695	3.002017e-07	1.392239e+00	
7696	3.002417e-07	1.391988e+00	
7697	3.002817e-07	1.394613e+00	
7698	3.003217e-07	1.397308e+00	
7699	3.003617e-07	1.398280e+00	
7700	3.004017e-07	1.398678e+00	
7701	3.004417e-07	1.398933e+00	
7702	3.004817e-07	1.399117e+00	
7703	3.005217e-07	1.399248e+00	
7704	3.005617e-07	1.399346e+00	
7705	3.006017e-07	1.399417e+00	
7706	3.006417e-07	1.399477e+00	
7707	3.006817e-07	1.399521e+00	
7708	3.007217e-07	1.399562e+00	
7709	3.007617e-07	1.399593e+00	
7710	3.008017e-07	1.399624e+00	

Index   time            cf              
--------------------------------------------------------------------------------
7711	3.008417e-07	1.399647e+00	
7712	3.008817e-07	1.399670e+00	
7713	3.009217e-07	1.399686e+00	
7714	3.009617e-07	1.399706e+00	
7715	3.010017e-07	1.399719e+00	
7716	3.010417e-07	1.399736e+00	
7717	3.010817e-07	1.399746e+00	
7718	3.011217e-07	1.399761e+00	
7719	3.011617e-07	1.399769e+00	
7720	3.012017e-07	1.399781e+00	
7721	3.012417e-07	1.399787e+00	
7722	3.012817e-07	1.399799e+00	
7723	3.013217e-07	1.399807e+00	
7724	3.013617e-07	1.399818e+00	
7725	3.014017e-07	1.399821e+00	
7726	3.014417e-07	1.399829e+00	
7727	3.014817e-07	1.399833e+00	
7728	3.015217e-07	1.399841e+00	
7729	3.015617e-07	1.399843e+00	
7730	3.016017e-07	1.399850e+00	
7731	3.016417e-07	1.399852e+00	
7732	3.016817e-07	1.399859e+00	
7733	3.017217e-07	1.399860e+00	
7734	3.017617e-07	1.399866e+00	
7735	3.018017e-07	1.399867e+00	
7736	3.018417e-07	1.399874e+00	
7737	3.018817e-07	1.399875e+00	
7738	3.019217e-07	1.399880e+00	
7739	3.019617e-07	1.399879e+00	
7740	3.020017e-07	1.399885e+00	
7741	3.020417e-07	1.399885e+00	
7742	3.020817e-07	1.399890e+00	
7743	3.021217e-07	1.399890e+00	
7744	3.021617e-07	1.399894e+00	
7745	3.022017e-07	1.399894e+00	
7746	3.022417e-07	1.399899e+00	
7747	3.022817e-07	1.399898e+00	
7748	3.023217e-07	1.399903e+00	
7749	3.023617e-07	1.399902e+00	
7750	3.024017e-07	1.399907e+00	
7751	3.024417e-07	1.399906e+00	
7752	3.024817e-07	1.399910e+00	
7753	3.025217e-07	1.399909e+00	
7754	3.025617e-07	1.399913e+00	
7755	3.026017e-07	1.399913e+00	
7756	3.026417e-07	1.399916e+00	
7757	3.026817e-07	1.399915e+00	
7758	3.027217e-07	1.399919e+00	
7759	3.027617e-07	1.399918e+00	
7760	3.028017e-07	1.399922e+00	
7761	3.028417e-07	1.399921e+00	
7762	3.028817e-07	1.399924e+00	
7763	3.029217e-07	1.399923e+00	
7764	3.029617e-07	1.399927e+00	
7765	3.030017e-07	1.399926e+00	
7766	3.030417e-07	1.399929e+00	
7767	3.030817e-07	1.399928e+00	
7768	3.031217e-07	1.399931e+00	

Index   time            cf              
--------------------------------------------------------------------------------
7769	3.031617e-07	1.399930e+00	
7770	3.032017e-07	1.399933e+00	
7771	3.032417e-07	1.399932e+00	
7772	3.032817e-07	1.399935e+00	
7773	3.033217e-07	1.399933e+00	
7774	3.033617e-07	1.399937e+00	
7775	3.034017e-07	1.399935e+00	
7776	3.034417e-07	1.399938e+00	
7777	3.034817e-07	1.399937e+00	
7778	3.035217e-07	1.399940e+00	
7779	3.035617e-07	1.399938e+00	
7780	3.036017e-07	1.399942e+00	
7781	3.036417e-07	1.399940e+00	
7782	3.036817e-07	1.399943e+00	
7783	3.037217e-07	1.399941e+00	
7784	3.037617e-07	1.399944e+00	
7785	3.038017e-07	1.399943e+00	
7786	3.038417e-07	1.399946e+00	
7787	3.038817e-07	1.399944e+00	
7788	3.039217e-07	1.399947e+00	
7789	3.039617e-07	1.399945e+00	
7790	3.040017e-07	1.399948e+00	
7791	3.040417e-07	1.399946e+00	
7792	3.040817e-07	1.399949e+00	
7793	3.041217e-07	1.399948e+00	
7794	3.041617e-07	1.399950e+00	
7795	3.042017e-07	1.399949e+00	
7796	3.042417e-07	1.399951e+00	
7797	3.042817e-07	1.399950e+00	
7798	3.043217e-07	1.399953e+00	
7799	3.043617e-07	1.399951e+00	
7800	3.044017e-07	1.399953e+00	
7801	3.044417e-07	1.399952e+00	
7802	3.044817e-07	1.399954e+00	
7803	3.045217e-07	1.399953e+00	
7804	3.045617e-07	1.399955e+00	
7805	3.046017e-07	1.399953e+00	
7806	3.046417e-07	1.399956e+00	
7807	3.046817e-07	1.399954e+00	
7808	3.047217e-07	1.399957e+00	
7809	3.047617e-07	1.399955e+00	
7810	3.048017e-07	1.399958e+00	
7811	3.048417e-07	1.399956e+00	
7812	3.048817e-07	1.399959e+00	
7813	3.049217e-07	1.399957e+00	
7814	3.049617e-07	1.399959e+00	
7815	3.050017e-07	1.399957e+00	
7816	3.050417e-07	1.399960e+00	
7817	3.050817e-07	1.399958e+00	
7818	3.051217e-07	1.399961e+00	
7819	3.051617e-07	1.399959e+00	
7820	3.052017e-07	1.399962e+00	
7821	3.052417e-07	1.399960e+00	
7822	3.052817e-07	1.399962e+00	
7823	3.053217e-07	1.399960e+00	
7824	3.053617e-07	1.399963e+00	
7825	3.054017e-07	1.399961e+00	
7826	3.054417e-07	1.399963e+00	

Index   time            cf              
--------------------------------------------------------------------------------
7827	3.054817e-07	1.399961e+00	
7828	3.055217e-07	1.399964e+00	
7829	3.055617e-07	1.399962e+00	
7830	3.056017e-07	1.399965e+00	
7831	3.056417e-07	1.399963e+00	
7832	3.056817e-07	1.399965e+00	
7833	3.057217e-07	1.399963e+00	
7834	3.057617e-07	1.399966e+00	
7835	3.058017e-07	1.399964e+00	
7836	3.058417e-07	1.399966e+00	
7837	3.058817e-07	1.399964e+00	
7838	3.059217e-07	1.399967e+00	
7839	3.059617e-07	1.399965e+00	
7840	3.060017e-07	1.399967e+00	
7841	3.060417e-07	1.399965e+00	
7842	3.060817e-07	1.399968e+00	
7843	3.061217e-07	1.399966e+00	
7844	3.061617e-07	1.399968e+00	
7845	3.062017e-07	1.399966e+00	
7846	3.062417e-07	1.399969e+00	
7847	3.062817e-07	1.399967e+00	
7848	3.063217e-07	1.399969e+00	
7849	3.063617e-07	1.399967e+00	
7850	3.064017e-07	1.399970e+00	
7851	3.064417e-07	1.399967e+00	
7852	3.064817e-07	1.399970e+00	
7853	3.065217e-07	1.399968e+00	
7854	3.065617e-07	1.399970e+00	
7855	3.066017e-07	1.399968e+00	
7856	3.066417e-07	1.399971e+00	
7857	3.066817e-07	1.399969e+00	
7858	3.067217e-07	1.399971e+00	
7859	3.067617e-07	1.399969e+00	
7860	3.068017e-07	1.399972e+00	
7861	3.068417e-07	1.399969e+00	
7862	3.068817e-07	1.399972e+00	
7863	3.069217e-07	1.399970e+00	
7864	3.069617e-07	1.399972e+00	
7865	3.070017e-07	1.399970e+00	
7866	3.070417e-07	1.399973e+00	
7867	3.070817e-07	1.399971e+00	
7868	3.071217e-07	1.399973e+00	
7869	3.071617e-07	1.399971e+00	
7870	3.072017e-07	1.399973e+00	
7871	3.072417e-07	1.399971e+00	
7872	3.072817e-07	1.399974e+00	
7873	3.073217e-07	1.399972e+00	
7874	3.073617e-07	1.399974e+00	
7875	3.074017e-07	1.399972e+00	
7876	3.074417e-07	1.399974e+00	
7877	3.074817e-07	1.399972e+00	
7878	3.075217e-07	1.399975e+00	
7879	3.075617e-07	1.399973e+00	
7880	3.076017e-07	1.399975e+00	
7881	3.076417e-07	1.399973e+00	
7882	3.076817e-07	1.399975e+00	
7883	3.077217e-07	1.399973e+00	
7884	3.077617e-07	1.399976e+00	

Index   time            cf              
--------------------------------------------------------------------------------
7885	3.078017e-07	1.399973e+00	
7886	3.078417e-07	1.399976e+00	
7887	3.078817e-07	1.399974e+00	
7888	3.079217e-07	1.399976e+00	
7889	3.079617e-07	1.399974e+00	
7890	3.080017e-07	1.399976e+00	
7891	3.080417e-07	1.399974e+00	
7892	3.080817e-07	1.399977e+00	
7893	3.081217e-07	1.399974e+00	
7894	3.081617e-07	1.399977e+00	
7895	3.082017e-07	1.399975e+00	
7896	3.082417e-07	1.399977e+00	
7897	3.082817e-07	1.399975e+00	
7898	3.083217e-07	1.399977e+00	
7899	3.083617e-07	1.399975e+00	
7900	3.084017e-07	1.399978e+00	
7901	3.084417e-07	1.399975e+00	
7902	3.084817e-07	1.399978e+00	
7903	3.085217e-07	1.399976e+00	
7904	3.085617e-07	1.399978e+00	
7905	3.086017e-07	1.399976e+00	
7906	3.086417e-07	1.399978e+00	
7907	3.086817e-07	1.399976e+00	
7908	3.087217e-07	1.399979e+00	
7909	3.087617e-07	1.399976e+00	
7910	3.088017e-07	1.399979e+00	
7911	3.088417e-07	1.399977e+00	
7912	3.088817e-07	1.399979e+00	
7913	3.089217e-07	1.399977e+00	
7914	3.089617e-07	1.399979e+00	
7915	3.090017e-07	1.399977e+00	
7916	3.090417e-07	1.399979e+00	
7917	3.090817e-07	1.399977e+00	
7918	3.091217e-07	1.399980e+00	
7919	3.091617e-07	1.399977e+00	
7920	3.092017e-07	1.399980e+00	
7921	3.092417e-07	1.399978e+00	
7922	3.092817e-07	1.399980e+00	
7923	3.093217e-07	1.399978e+00	
7924	3.093617e-07	1.399980e+00	
7925	3.094017e-07	1.399978e+00	
7926	3.094417e-07	1.399980e+00	
7927	3.094817e-07	1.399978e+00	
7928	3.095217e-07	1.399981e+00	
7929	3.095617e-07	1.399978e+00	
7930	3.096017e-07	1.399981e+00	
7931	3.096417e-07	1.399979e+00	
7932	3.096817e-07	1.399981e+00	
7933	3.097217e-07	1.399979e+00	
7934	3.097617e-07	1.399981e+00	
7935	3.098017e-07	1.399979e+00	
7936	3.098417e-07	1.399981e+00	
7937	3.098817e-07	1.399979e+00	
7938	3.099217e-07	1.399981e+00	
7939	3.099617e-07	1.399979e+00	
7940	3.100017e-07	1.399982e+00	
7941	3.100417e-07	1.399979e+00	
7942	3.100817e-07	1.399982e+00	

Index   time            cf              
--------------------------------------------------------------------------------
7943	3.101217e-07	1.399980e+00	
7944	3.101617e-07	1.399982e+00	
7945	3.102017e-07	1.399980e+00	
7946	3.102417e-07	1.399982e+00	
7947	3.102817e-07	1.399980e+00	
7948	3.103217e-07	1.399982e+00	
7949	3.103617e-07	1.399980e+00	
7950	3.104017e-07	1.399982e+00	
7951	3.104417e-07	1.399980e+00	
7952	3.104817e-07	1.399983e+00	
7953	3.105217e-07	1.399980e+00	
7954	3.105617e-07	1.399983e+00	
7955	3.106017e-07	1.399981e+00	
7956	3.106417e-07	1.399983e+00	
7957	3.106817e-07	1.399981e+00	
7958	3.107217e-07	1.399983e+00	
7959	3.107617e-07	1.399981e+00	
7960	3.108017e-07	1.399983e+00	
7961	3.108417e-07	1.399981e+00	
7962	3.108817e-07	1.399983e+00	
7963	3.109217e-07	1.399981e+00	
7964	3.109617e-07	1.399983e+00	
7965	3.110017e-07	1.399981e+00	
7966	3.110417e-07	1.399984e+00	
7967	3.110817e-07	1.399981e+00	
7968	3.111217e-07	1.399984e+00	
7969	3.111617e-07	1.399982e+00	
7970	3.112017e-07	1.399984e+00	
7971	3.112417e-07	1.399982e+00	
7972	3.112817e-07	1.399984e+00	
7973	3.113217e-07	1.399982e+00	
7974	3.113617e-07	1.399984e+00	
7975	3.114017e-07	1.399982e+00	
7976	3.114417e-07	1.399984e+00	
7977	3.114817e-07	1.399982e+00	
7978	3.115217e-07	1.399984e+00	
7979	3.115617e-07	1.399982e+00	
7980	3.116017e-07	1.399984e+00	
7981	3.116417e-07	1.399982e+00	
7982	3.116817e-07	1.399985e+00	
7983	3.117217e-07	1.399982e+00	
7984	3.117617e-07	1.399985e+00	
7985	3.118017e-07	1.399983e+00	
7986	3.118417e-07	1.399985e+00	
7987	3.118817e-07	1.399983e+00	
7988	3.119217e-07	1.399985e+00	
7989	3.119617e-07	1.399983e+00	
7990	3.120017e-07	1.399985e+00	
7991	3.120417e-07	1.399983e+00	
7992	3.120817e-07	1.399985e+00	
7993	3.121217e-07	1.399983e+00	
7994	3.121617e-07	1.399985e+00	
7995	3.122017e-07	1.399983e+00	
7996	3.122417e-07	1.399985e+00	
7997	3.122817e-07	1.399983e+00	
7998	3.123217e-07	1.399985e+00	
7999	3.123617e-07	1.399983e+00	
8000	3.124017e-07	1.399986e+00	

Index   time            cf              
--------------------------------------------------------------------------------
8001	3.124417e-07	1.399983e+00	
8002	3.124817e-07	1.399986e+00	
8003	3.125217e-07	1.399984e+00	
8004	3.125617e-07	1.399986e+00	
8005	3.126017e-07	1.399984e+00	
8006	3.126417e-07	1.399986e+00	
8007	3.126817e-07	1.399984e+00	
8008	3.127217e-07	1.399986e+00	
8009	3.127617e-07	1.399984e+00	
8010	3.128017e-07	1.399986e+00	
8011	3.128417e-07	1.399984e+00	
8012	3.128817e-07	1.399986e+00	
8013	3.129217e-07	1.399984e+00	
8014	3.129617e-07	1.399986e+00	
8015	3.130017e-07	1.399984e+00	
8016	3.130417e-07	1.399986e+00	
8017	3.130817e-07	1.399984e+00	
8018	3.131217e-07	1.399986e+00	
8019	3.131617e-07	1.399984e+00	
8020	3.132017e-07	1.399987e+00	
8021	3.132417e-07	1.399985e+00	
8022	3.132817e-07	1.399987e+00	
8023	3.133217e-07	1.399985e+00	
8024	3.133617e-07	1.399987e+00	
8025	3.134017e-07	1.399985e+00	
8026	3.134417e-07	1.399987e+00	
8027	3.134817e-07	1.399985e+00	
8028	3.135217e-07	1.399987e+00	
8029	3.135617e-07	1.399985e+00	
8030	3.136017e-07	1.399987e+00	
8031	3.136417e-07	1.399985e+00	
8032	3.136817e-07	1.399987e+00	
8033	3.137217e-07	1.399985e+00	
8034	3.137617e-07	1.399987e+00	
8035	3.138017e-07	1.399985e+00	
8036	3.138417e-07	1.399987e+00	
8037	3.138817e-07	1.399985e+00	
8038	3.139217e-07	1.399987e+00	
8039	3.139617e-07	1.399985e+00	
8040	3.140017e-07	1.399987e+00	
8041	3.140417e-07	1.399985e+00	
8042	3.140817e-07	1.399988e+00	
8043	3.141217e-07	1.399985e+00	
8044	3.141617e-07	1.399988e+00	
8045	3.142017e-07	1.399986e+00	
8046	3.142417e-07	1.399988e+00	
8047	3.142817e-07	1.399986e+00	
8048	3.143217e-07	1.399988e+00	
8049	3.143617e-07	1.399986e+00	
8050	3.144017e-07	1.399988e+00	
8051	3.144417e-07	1.399986e+00	
8052	3.144817e-07	1.399988e+00	
8053	3.145217e-07	1.399986e+00	
8054	3.145617e-07	1.399988e+00	
8055	3.146017e-07	1.399986e+00	
8056	3.146417e-07	1.399988e+00	
8057	3.146817e-07	1.399986e+00	
8058	3.147217e-07	1.399988e+00	

Index   time            cf              
--------------------------------------------------------------------------------
8059	3.147617e-07	1.399986e+00	
8060	3.148017e-07	1.399988e+00	
8061	3.148417e-07	1.399986e+00	
8062	3.148817e-07	1.399988e+00	
8063	3.149217e-07	1.399986e+00	
8064	3.149617e-07	1.399988e+00	
8065	3.150017e-07	1.399986e+00	
8066	3.150417e-07	1.399988e+00	
8067	3.150817e-07	1.399986e+00	
8068	3.151217e-07	1.399989e+00	
8069	3.151617e-07	1.399986e+00	
8070	3.152017e-07	1.399989e+00	
8071	3.152417e-07	1.399987e+00	
8072	3.152817e-07	1.399989e+00	
8073	3.153217e-07	1.399987e+00	
8074	3.153617e-07	1.399989e+00	
8075	3.154017e-07	1.399987e+00	
8076	3.154417e-07	1.399989e+00	
8077	3.154817e-07	1.399987e+00	
8078	3.155217e-07	1.399989e+00	
8079	3.155617e-07	1.399987e+00	
8080	3.156017e-07	1.399989e+00	
8081	3.156417e-07	1.399987e+00	
8082	3.156817e-07	1.399989e+00	
8083	3.157217e-07	1.399987e+00	
8084	3.157617e-07	1.399989e+00	
8085	3.158017e-07	1.399987e+00	
8086	3.158417e-07	1.399989e+00	
8087	3.158817e-07	1.399987e+00	
8088	3.159217e-07	1.399989e+00	
8089	3.159617e-07	1.399987e+00	
8090	3.160017e-07	1.399989e+00	
8091	3.160417e-07	1.399987e+00	
8092	3.160817e-07	1.399989e+00	
8093	3.161217e-07	1.399987e+00	
8094	3.161617e-07	1.399989e+00	
8095	3.162017e-07	1.399987e+00	
8096	3.162417e-07	1.399989e+00	
8097	3.162817e-07	1.399987e+00	
8098	3.163217e-07	1.399989e+00	
8099	3.163617e-07	1.399987e+00	
8100	3.164017e-07	1.399990e+00	
8101	3.164417e-07	1.399988e+00	
8102	3.164817e-07	1.399990e+00	
8103	3.165217e-07	1.399988e+00	
8104	3.165617e-07	1.399990e+00	
8105	3.166017e-07	1.399988e+00	
8106	3.166417e-07	1.399990e+00	
8107	3.166817e-07	1.399988e+00	
8108	3.167217e-07	1.399990e+00	
8109	3.167617e-07	1.399988e+00	
8110	3.168017e-07	1.399990e+00	
8111	3.168417e-07	1.399988e+00	
8112	3.168817e-07	1.399990e+00	
8113	3.169217e-07	1.399988e+00	
8114	3.169617e-07	1.399990e+00	
8115	3.170017e-07	1.399988e+00	
8116	3.170417e-07	1.399990e+00	

Index   time            cf              
--------------------------------------------------------------------------------
8117	3.170817e-07	1.399988e+00	
8118	3.171217e-07	1.399990e+00	
8119	3.171617e-07	1.399988e+00	
8120	3.172017e-07	1.399990e+00	
8121	3.172417e-07	1.399988e+00	
8122	3.172817e-07	1.399990e+00	
8123	3.173217e-07	1.399988e+00	
8124	3.173617e-07	1.399990e+00	
8125	3.174017e-07	1.399988e+00	
8126	3.174417e-07	1.399990e+00	
8127	3.174817e-07	1.399988e+00	
8128	3.175217e-07	1.399990e+00	
8129	3.175617e-07	1.399988e+00	
8130	3.176017e-07	1.399990e+00	
8131	3.176417e-07	1.399988e+00	
8132	3.176817e-07	1.399990e+00	
8133	3.177217e-07	1.399988e+00	
8134	3.177617e-07	1.399990e+00	
8135	3.178017e-07	1.399988e+00	
8136	3.178417e-07	1.399990e+00	
8137	3.178817e-07	1.399988e+00	
8138	3.179217e-07	1.399991e+00	
8139	3.179617e-07	1.399989e+00	
8140	3.180017e-07	1.399991e+00	
8141	3.180417e-07	1.399989e+00	
8142	3.180817e-07	1.399991e+00	
8143	3.181217e-07	1.399989e+00	
8144	3.181617e-07	1.399991e+00	
8145	3.182017e-07	1.399989e+00	
8146	3.182417e-07	1.399991e+00	
8147	3.182817e-07	1.399989e+00	
8148	3.183217e-07	1.399991e+00	
8149	3.183617e-07	1.399989e+00	
8150	3.184017e-07	1.399991e+00	
8151	3.184417e-07	1.399989e+00	
8152	3.184817e-07	1.399991e+00	
8153	3.185217e-07	1.399989e+00	
8154	3.185617e-07	1.399991e+00	
8155	3.186017e-07	1.399989e+00	
8156	3.186417e-07	1.399991e+00	
8157	3.186817e-07	1.399989e+00	
8158	3.187217e-07	1.399991e+00	
8159	3.187617e-07	1.399989e+00	
8160	3.188017e-07	1.399991e+00	
8161	3.188417e-07	1.399989e+00	
8162	3.188817e-07	1.399991e+00	
8163	3.189217e-07	1.399989e+00	
8164	3.189617e-07	1.399991e+00	
8165	3.190017e-07	1.399989e+00	
8166	3.190417e-07	1.399991e+00	
8167	3.190817e-07	1.399989e+00	
8168	3.191217e-07	1.399991e+00	
8169	3.191617e-07	1.399989e+00	
8170	3.192017e-07	1.399991e+00	
8171	3.192417e-07	1.399989e+00	
8172	3.192817e-07	1.399991e+00	
8173	3.193217e-07	1.399989e+00	
8174	3.193617e-07	1.399991e+00	

Index   time            cf              
--------------------------------------------------------------------------------
8175	3.194017e-07	1.399989e+00	
8176	3.194417e-07	1.399991e+00	
8177	3.194817e-07	1.399989e+00	
8178	3.195217e-07	1.399991e+00	
8179	3.195617e-07	1.399989e+00	
8180	3.196017e-07	1.399991e+00	
8181	3.196417e-07	1.399990e+00	
8182	3.196817e-07	1.399992e+00	
8183	3.197217e-07	1.399990e+00	
8184	3.197617e-07	1.399992e+00	
8185	3.198017e-07	1.399990e+00	
8186	3.198417e-07	1.399992e+00	
8187	3.198817e-07	1.399990e+00	
8188	3.199217e-07	1.399992e+00	
8189	3.199617e-07	1.399990e+00	
8190	3.200000e-07	1.399992e+00	
plbr                =  4.965706e-05 from=  1.000000e-09 to=  5.903810e-08
plar                =  7.722085e-04 from=  6.100000e-08 to=  2.960017e-07
phbr                =  4.456184e-03 from=  0.000000e+00 to=  5.903810e-08
phar                =  5.865953e-05 from=  6.100000e-08 to=  2.960017e-07
ds1.0               =  1.400001e+00
ds1.1               =  1.400000e+00
ds1.2               =  1.166570e-06
ds1.3               =  1.400003e+00
ds1.4               =  6.247071e-07
ds1.5               =  2.427803e-07
ds1.6               =  2.028114e-07
ds1.7               =  1.721845e-07
ds1.8               =  2.080515e-07
ds1.9               =  2.707008e-07
ds1.10              =  2.902176e-07
ds1.11              =  3.141619e-07
ds1.12              =  2.704424e-07
ds1.13              =  3.093414e-07
ds1.14              =  1.573048e-07
ds1.15              =  2.007243e-07
ds2.0               =  1.400001e+00
ds2.1               =  3.389951e-08
ds2.2               =  1.153321e-06
ds2.3               =  9.562539e-07
ds2.4               =  1.400000e+00
ds2.5               =  2.327076e-07
ds2.6               =  2.640426e-07
ds2.7               =  2.661112e-07
ds2.8               =  3.159331e-07
ds2.9               =  3.186587e-07
ds2.10              =  3.509183e-07
ds2.11              =  2.956321e-07
ds2.12              =  2.454817e-07
ds2.13              =  2.914384e-07
ds2.14              =  2.526313e-07
ds2.15              =  1.844866e-07
dm.0                =  1.610285e-05
dm.1                =  1.400006e+00
dm.2                =  1.400007e+00
dm.3                =  1.400000e+00
dm.4                =  1.400000e+00
dm.5                =  2.701838e-07
dm.6                =  2.575593e-07
dm.7                =  1.499731e-07
dm.8                =  2.857267e-07
dm.9                =  1.842604e-07
dm.10               =  1.709123e-07
dm.11               =  1.346409e-07
dm.12               =  1.400421e-07
dm.13               =  1.207460e-07
dm.14               =  1.585053e-07
dm.15               =  1.114168e-07
dm.16               =  1.873607e-07
dm.17               =  1.695369e-07
dm.18               =  1.573882e-07
dm.19               =  5.635677e-08
Note: No ".plot", ".print", or ".fourier" lines; no simulations run
