
Compatibility modes selected: hs a

Warning: m=xx on .subckt line will override multiplier m hierarchy!


Circuit: test netlist

option SCALE: Scale is set to 1e-06 for instance and model parameters
Warning: Model issue on line 153 :
  .model sky130_fd_pr__res_generic_po r tc1r=    8.916000000000000e-04     ...
unrecognized parameter (-tol_poly) - ignored
unrecognized parameter (/) - ignored
unrecognized parameter (-poly_dw) - ignored
unrecognized parameter (/) - ignored
Doing analysis at TEMP = 27.000000 and TNOM = 27.000000

Using transient initial conditions

No. of Data Rows : 10541
                                  test netlist
                                  Transient Analysis  Wed Oct 25 14:11:01  2023
--------------------------------------------------------------------------------
Index   time            cf              
--------------------------------------------------------------------------------
0	4.000000e-13	7.581866e-01	
1	4.111993e-13	7.603954e-01	
2	4.335979e-13	7.629228e-01	
3	4.783951e-13	7.634696e-01	
4	5.679895e-13	7.632649e-01	
5	7.471783e-13	7.629416e-01	
6	1.105556e-12	7.622686e-01	
7	1.822311e-12	7.609593e-01	
8	3.255822e-12	7.584058e-01	
9	6.122843e-12	7.536624e-01	
10	1.185689e-11	7.461414e-01	
11	2.332497e-11	7.376844e-01	
12	3.427275e-11	7.353140e-01	
13	4.000000e-11	7.354258e-01	
14	4.146658e-11	7.356108e-01	
15	4.439975e-11	7.360698e-01	
16	5.026608e-11	7.373918e-01	
17	6.199875e-11	7.403089e-01	
18	8.546408e-11	7.407815e-01	
19	1.254641e-10	7.242472e-01	
20	1.654641e-10	6.990801e-01	
21	2.054641e-10	6.688209e-01	
22	2.454641e-10	6.264449e-01	
23	2.854641e-10	5.736176e-01	
24	3.254641e-10	5.290111e-01	
25	3.654641e-10	4.987765e-01	
26	4.054641e-10	4.725911e-01	
27	4.454641e-10	4.453290e-01	
28	4.854641e-10	4.165924e-01	
29	5.254641e-10	3.857421e-01	
30	5.654641e-10	3.522066e-01	
31	6.054641e-10	3.159238e-01	
32	6.454641e-10	2.768344e-01	
33	6.854641e-10	2.348060e-01	
34	7.254641e-10	1.899053e-01	
35	7.654641e-10	1.429240e-01	
36	8.054641e-10	9.715497e-02	
37	8.454641e-10	5.877907e-02	
38	8.854641e-10	3.304675e-02	
39	9.254641e-10	1.939578e-02	
40	9.654641e-10	1.300873e-02	
41	1.005464e-09	9.776487e-03	
42	1.045464e-09	6.755982e-03	
43	1.085464e-09	3.771049e-03	
44	1.125464e-09	1.979363e-03	
45	1.165464e-09	9.957650e-04	
46	1.205464e-09	4.846689e-04	
47	1.245464e-09	2.256474e-04	
48	1.285464e-09	9.633762e-05	
49	1.325464e-09	3.472793e-05	
50	1.365464e-09	5.259579e-06	
51	1.405464e-09	-6.88910e-06	
52	1.445464e-09	-1.22026e-05	
53	1.485464e-09	-1.29553e-05	
54	1.525464e-09	-1.31970e-05	

Index   time            cf              
--------------------------------------------------------------------------------
55	1.565464e-09	-1.20734e-05	
56	1.605464e-09	-1.15548e-05	
57	1.645464e-09	-1.04028e-05	
58	1.685464e-09	-9.87402e-06	
59	1.725464e-09	-8.89450e-06	
60	1.765464e-09	-8.36823e-06	
61	1.805464e-09	-7.42402e-06	
62	1.845464e-09	-7.05243e-06	
63	1.885464e-09	-6.50139e-06	
64	1.925464e-09	-5.62555e-06	
65	1.965464e-09	-4.55563e-06	
66	2.005464e-09	-3.86128e-06	
67	2.045464e-09	-3.11343e-06	
68	2.085464e-09	-2.71945e-06	
69	2.125464e-09	-2.31677e-06	
70	2.165464e-09	-2.21405e-06	
71	2.205464e-09	-2.17065e-06	
72	2.245464e-09	-2.32226e-06	
73	2.285464e-09	-2.42255e-06	
74	2.325464e-09	-2.62689e-06	
75	2.365464e-09	-2.75807e-06	
76	2.405464e-09	-2.95009e-06	
77	2.445464e-09	-3.06002e-06	
78	2.485464e-09	-3.20212e-06	
79	2.525464e-09	-3.27168e-06	
80	2.565464e-09	-3.37371e-06	
81	2.605464e-09	-3.39130e-06	
82	2.645464e-09	-3.43303e-06	
83	2.685464e-09	-3.41517e-06	
84	2.725464e-09	-3.41252e-06	
85	2.765464e-09	-3.38010e-06	
86	2.805464e-09	-3.37833e-06	
87	2.845464e-09	-3.31803e-06	
88	2.885464e-09	-3.29164e-06	
89	2.925464e-09	-3.22325e-06	
90	2.965464e-09	-3.18799e-06	
91	3.005464e-09	-3.11434e-06	
92	3.045464e-09	-3.07063e-06	
93	3.085464e-09	-2.98076e-06	
94	3.125464e-09	-2.94396e-06	
95	3.165464e-09	-2.86930e-06	
96	3.205464e-09	-2.83018e-06	
97	3.245464e-09	-2.75760e-06	
98	3.285464e-09	-2.70630e-06	
99	3.325464e-09	-2.63591e-06	
100	3.365464e-09	-2.55276e-06	
101	3.405464e-09	-2.46916e-06	
102	3.445464e-09	-2.43887e-06	
103	3.485464e-09	-2.37193e-06	
104	3.525464e-09	-2.34686e-06	
105	3.565464e-09	-2.28213e-06	
106	3.605464e-09	-2.26045e-06	
107	3.645464e-09	-2.19776e-06	
108	3.685464e-09	-2.17905e-06	
109	3.725464e-09	-2.11812e-06	
110	3.765464e-09	-2.10247e-06	
111	3.805464e-09	-2.04298e-06	
112	3.845464e-09	-2.03037e-06	

Index   time            cf              
--------------------------------------------------------------------------------
113	3.885464e-09	-1.97207e-06	
114	3.925464e-09	-1.96240e-06	
115	3.965464e-09	-1.90510e-06	
116	4.005464e-09	-1.89824e-06	
117	4.045464e-09	-1.84177e-06	
118	4.085464e-09	-1.83767e-06	
119	4.125464e-09	-1.78189e-06	
120	4.165464e-09	-1.78032e-06	
121	4.205464e-09	-1.72508e-06	
122	4.245464e-09	-1.72604e-06	
123	4.285464e-09	-1.67125e-06	
124	4.325464e-09	-1.67452e-06	
125	4.365464e-09	-1.62007e-06	
126	4.405464e-09	-1.62564e-06	
127	4.445464e-09	-1.57146e-06	
128	4.485464e-09	-1.57918e-06	
129	4.525464e-09	-1.52519e-06	
130	4.565464e-09	-1.53494e-06	
131	4.605464e-09	-1.48114e-06	
132	4.645464e-09	-1.49280e-06	
133	4.685464e-09	-1.43912e-06	
134	4.725464e-09	-1.45262e-06	
135	4.765464e-09	-1.39901e-06	
136	4.805464e-09	-1.41428e-06	
137	4.845464e-09	-1.36069e-06	
138	4.885464e-09	-1.37767e-06	
139	4.925464e-09	-1.32404e-06	
140	4.965464e-09	-1.34267e-06	
141	5.005464e-09	-1.28895e-06	
142	5.045464e-09	-1.30919e-06	
143	5.085464e-09	-1.25534e-06	
144	5.125464e-09	-1.27715e-06	
145	5.165464e-09	-1.22312e-06	
146	5.205464e-09	-1.24641e-06	
147	5.245464e-09	-1.19218e-06	
148	5.285464e-09	-1.21694e-06	
149	5.325464e-09	-1.16250e-06	
150	5.365464e-09	-1.18864e-06	
151	5.405464e-09	-1.13390e-06	
152	5.445464e-09	-1.16138e-06	
153	5.485464e-09	-1.10615e-06	
154	5.525464e-09	-1.16786e-06	
155	5.565464e-09	-1.13846e-06	
156	5.605464e-09	-1.17990e-06	
157	5.645464e-09	-1.12042e-06	
158	5.685464e-09	-1.15463e-06	
159	5.725464e-09	-1.08426e-06	
160	5.765464e-09	-1.07404e-06	
161	5.805464e-09	-1.00540e-06	
162	5.845464e-09	-1.04165e-06	
163	5.885464e-09	-9.84181e-07	
164	5.925464e-09	-1.01901e-06	
165	5.965464e-09	-9.62175e-07	
166	6.005464e-09	-9.98175e-07	
167	6.045464e-09	-9.40905e-07	
168	6.085464e-09	-9.78075e-07	
169	6.125464e-09	-9.20250e-07	
170	6.165464e-09	-9.58512e-07	

Index   time            cf              
--------------------------------------------------------------------------------
171	6.205464e-09	-9.10428e-07	
172	6.245464e-09	-9.92342e-07	
173	6.285464e-09	-9.45170e-07	
174	6.325464e-09	-9.85862e-07	
175	6.365464e-09	-9.24807e-07	
176	6.405464e-09	-9.39276e-07	
177	6.445464e-09	-8.53672e-07	
178	6.485464e-09	-8.87910e-07	
179	6.525464e-09	-8.39261e-07	
180	6.565464e-09	-9.15681e-07	
181	6.605464e-09	-8.60947e-07	
182	6.645464e-09	-9.15567e-07	
183	6.685464e-09	-8.73241e-07	
184	6.725464e-09	-9.42885e-07	
185	6.765464e-09	-9.18364e-07	
186	6.805464e-09	-1.00728e-06	
187	6.845464e-09	-9.10324e-07	
188	6.885464e-09	-7.60897e-07	
189	6.925464e-09	-2.85095e-07	
190	6.965464e-09	1.420268e-07	
191	7.005464e-09	2.884609e-07	
192	7.045464e-09	-4.45907e-07	
193	7.085464e-09	-1.79928e-06	
194	7.125464e-09	-2.68103e-06	
195	7.165464e-09	-2.11689e-06	
196	7.205464e-09	-1.32216e-06	
197	7.245464e-09	-6.20085e-07	
198	7.285464e-09	-4.16068e-07	
199	7.325464e-09	-3.12278e-07	
200	7.365464e-09	-4.01176e-07	
201	7.405464e-09	-4.22107e-07	
202	7.445464e-09	-5.52488e-07	
203	7.485464e-09	-5.49999e-07	
204	7.525464e-09	-6.38490e-07	
205	7.565464e-09	-6.14839e-07	
206	7.605464e-09	-6.93543e-07	
207	7.645464e-09	-6.24427e-07	
208	7.685464e-09	-6.74317e-07	
209	7.725464e-09	-6.13297e-07	
210	7.765464e-09	-6.68073e-07	
211	7.805464e-09	-6.05526e-07	
212	7.845464e-09	-6.58973e-07	
213	7.885464e-09	-5.95840e-07	
214	7.925464e-09	-6.49257e-07	
215	7.965464e-09	-5.85570e-07	
216	8.005464e-09	-6.39527e-07	
217	8.045464e-09	-5.75261e-07	
218	8.085464e-09	-6.29948e-07	
219	8.125464e-09	-5.65122e-07	
220	8.165464e-09	-6.20581e-07	
221	8.205464e-09	-5.55217e-07	
222	8.245464e-09	-6.11438e-07	
223	8.285464e-09	-5.45554e-07	
224	8.325464e-09	-6.02522e-07	
225	8.365464e-09	-5.36165e-07	
226	8.405464e-09	-5.93828e-07	
227	8.445464e-09	-5.26944e-07	
228	8.485464e-09	-5.85340e-07	

Index   time            cf              
--------------------------------------------------------------------------------
229	8.525464e-09	-5.17984e-07	
230	8.565464e-09	-5.77060e-07	
231	8.605464e-09	-5.09239e-07	
232	8.645464e-09	-5.68980e-07	
233	8.685464e-09	-5.00699e-07	
234	8.725464e-09	-5.61093e-07	
235	8.765464e-09	-4.92358e-07	
236	8.805464e-09	-5.53394e-07	
237	8.845464e-09	-4.84208e-07	
238	8.885464e-09	-5.45876e-07	
239	8.925464e-09	-4.76241e-07	
240	8.965464e-09	-5.38532e-07	
241	9.005464e-09	-4.68452e-07	
242	9.045464e-09	-5.31367e-07	
243	9.085464e-09	-4.60833e-07	
244	9.125464e-09	-5.24354e-07	
245	9.165464e-09	-4.53381e-07	
246	9.205464e-09	-5.17510e-07	
247	9.245464e-09	-4.46088e-07	
248	9.285464e-09	-5.10819e-07	
249	9.325464e-09	-4.38949e-07	
250	9.365464e-09	-5.04277e-07	
251	9.405464e-09	-4.31956e-07	
252	9.445464e-09	-4.97887e-07	
253	9.485464e-09	-4.25121e-07	
254	9.525464e-09	-4.91620e-07	
255	9.565464e-09	-4.18411e-07	
256	9.605464e-09	-4.85513e-07	
257	9.645464e-09	-4.11849e-07	
258	9.685464e-09	-4.79523e-07	
259	9.725464e-09	-4.05415e-07	
260	9.765464e-09	-4.73666e-07	
261	9.805464e-09	-3.99111e-07	
262	9.845464e-09	-4.67935e-07	
263	9.885464e-09	-3.92930e-07	
264	9.925464e-09	-4.62325e-07	
265	9.965464e-09	-3.86872e-07	
266	1.000546e-08	-4.56833e-07	
267	1.004546e-08	-3.80931e-07	
268	1.008546e-08	-4.51456e-07	
269	1.012546e-08	-3.75105e-07	
270	1.016546e-08	-4.46190e-07	
271	1.020546e-08	-3.69389e-07	
272	1.024546e-08	-4.41032e-07	
273	1.028546e-08	-3.63783e-07	
274	1.032546e-08	-4.35979e-07	
275	1.036546e-08	-3.58281e-07	
276	1.040546e-08	-4.31024e-07	
277	1.044546e-08	-3.52888e-07	
278	1.048546e-08	-4.26174e-07	
279	1.052546e-08	-3.47585e-07	
280	1.056546e-08	-4.21420e-07	
281	1.060546e-08	-3.42382e-07	
282	1.064546e-08	-4.16760e-07	
283	1.068546e-08	-3.37274e-07	
284	1.072546e-08	-4.12191e-07	
285	1.076546e-08	-3.32259e-07	
286	1.080546e-08	-4.07710e-07	

Index   time            cf              
--------------------------------------------------------------------------------
287	1.084546e-08	-3.27333e-07	
288	1.088546e-08	-4.03317e-07	
289	1.092546e-08	-3.22494e-07	
290	1.096546e-08	-3.99008e-07	
291	1.100546e-08	-3.17742e-07	
292	1.104546e-08	-3.94780e-07	
293	1.108546e-08	-3.13071e-07	
294	1.112546e-08	-3.90633e-07	
295	1.116546e-08	-3.08483e-07	
296	1.120546e-08	-3.86564e-07	
297	1.124546e-08	-3.03972e-07	
298	1.128546e-08	-3.82570e-07	
299	1.132546e-08	-2.99540e-07	
300	1.136546e-08	-3.78651e-07	
301	1.140546e-08	-2.95181e-07	
302	1.144546e-08	-3.74803e-07	
303	1.148546e-08	-2.90898e-07	
304	1.152546e-08	-3.71026e-07	
305	1.156546e-08	-2.86684e-07	
306	1.160546e-08	-3.67318e-07	
307	1.164546e-08	-2.82542e-07	
308	1.168546e-08	-3.63676e-07	
309	1.172546e-08	-2.78466e-07	
310	1.176546e-08	-3.60100e-07	
311	1.180546e-08	-2.74459e-07	
312	1.184546e-08	-3.56586e-07	
313	1.188546e-08	-2.70515e-07	
314	1.192546e-08	-3.53136e-07	
315	1.196546e-08	-2.66637e-07	
316	1.200546e-08	-3.49745e-07	
317	1.204546e-08	-2.62818e-07	
318	1.208546e-08	-3.46415e-07	
319	1.212546e-08	-2.59063e-07	
320	1.216546e-08	-3.43141e-07	
321	1.220546e-08	-2.55367e-07	
322	1.224546e-08	-3.39924e-07	
323	1.228546e-08	-2.51724e-07	
324	1.232546e-08	-3.36762e-07	
325	1.236546e-08	-2.48145e-07	
326	1.240546e-08	-3.33653e-07	
327	1.244546e-08	-2.44616e-07	
328	1.248546e-08	-3.30597e-07	
329	1.252546e-08	-2.41143e-07	
330	1.256546e-08	-3.27593e-07	
331	1.260546e-08	-2.37724e-07	
332	1.264546e-08	-3.24639e-07	
333	1.268546e-08	-2.34355e-07	
334	1.272546e-08	-3.21733e-07	
335	1.276546e-08	-2.31038e-07	
336	1.280546e-08	-3.18875e-07	
337	1.284546e-08	-2.27770e-07	
338	1.288546e-08	-3.16065e-07	
339	1.292546e-08	-2.24553e-07	
340	1.296546e-08	-3.13299e-07	
341	1.300546e-08	-2.21381e-07	
342	1.304546e-08	-3.10579e-07	
343	1.308546e-08	-2.18257e-07	
344	1.312546e-08	-3.07902e-07	

Index   time            cf              
--------------------------------------------------------------------------------
345	1.316546e-08	-2.15177e-07	
346	1.320546e-08	-3.05268e-07	
347	1.324546e-08	-2.12144e-07	
348	1.328546e-08	-3.02676e-07	
349	1.332546e-08	-2.09153e-07	
350	1.336546e-08	-3.00125e-07	
351	1.340546e-08	-2.06206e-07	
352	1.344546e-08	-2.97613e-07	
353	1.348546e-08	-2.03300e-07	
354	1.352546e-08	-2.95141e-07	
355	1.356546e-08	-2.00437e-07	
356	1.360546e-08	-2.92707e-07	
357	1.364546e-08	-1.97612e-07	
358	1.368546e-08	-2.90311e-07	
359	1.372546e-08	-1.94829e-07	
360	1.376546e-08	-2.87951e-07	
361	1.380546e-08	-1.92083e-07	
362	1.384546e-08	-2.85628e-07	
363	1.388546e-08	-1.89376e-07	
364	1.392546e-08	-2.83339e-07	
365	1.396546e-08	-1.86705e-07	
366	1.400546e-08	-2.81086e-07	
367	1.404546e-08	-1.84072e-07	
368	1.408546e-08	-2.78865e-07	
369	1.412546e-08	-1.81474e-07	
370	1.416546e-08	-2.76679e-07	
371	1.420546e-08	-1.78912e-07	
372	1.424546e-08	-2.74524e-07	
373	1.428546e-08	-1.76384e-07	
374	1.432546e-08	-2.72401e-07	
375	1.436546e-08	-1.73890e-07	
376	1.440546e-08	-2.70309e-07	
377	1.444546e-08	-1.71429e-07	
378	1.448546e-08	-2.68248e-07	
379	1.452546e-08	-1.69001e-07	
380	1.456546e-08	-2.66216e-07	
381	1.460546e-08	-1.66604e-07	
382	1.464546e-08	-2.64214e-07	
383	1.468546e-08	-1.64240e-07	
384	1.472546e-08	-2.62240e-07	
385	1.476546e-08	-1.61906e-07	
386	1.480546e-08	-2.60295e-07	
387	1.484546e-08	-1.59603e-07	
388	1.488546e-08	-2.58377e-07	
389	1.492546e-08	-1.57328e-07	
390	1.496546e-08	-2.56486e-07	
391	1.500546e-08	-1.55084e-07	
392	1.504546e-08	-2.54621e-07	
393	1.508546e-08	-1.52868e-07	
394	1.512546e-08	-2.52783e-07	
395	1.516546e-08	-1.50680e-07	
396	1.520546e-08	-2.50970e-07	
397	1.524546e-08	-1.48520e-07	
398	1.528546e-08	-2.49182e-07	
399	1.532546e-08	-1.46387e-07	
400	1.536546e-08	-2.47419e-07	
401	1.540546e-08	-1.44281e-07	
402	1.544546e-08	-2.45679e-07	

Index   time            cf              
--------------------------------------------------------------------------------
403	1.548546e-08	-1.42201e-07	
404	1.552546e-08	-2.43964e-07	
405	1.556546e-08	-1.40147e-07	
406	1.560546e-08	-2.42271e-07	
407	1.564546e-08	-1.38119e-07	
408	1.568546e-08	-2.40601e-07	
409	1.572546e-08	-1.36115e-07	
410	1.576546e-08	-2.38954e-07	
411	1.580546e-08	-1.34136e-07	
412	1.584546e-08	-2.37328e-07	
413	1.588546e-08	-1.32181e-07	
414	1.592546e-08	-2.35724e-07	
415	1.596546e-08	-1.30249e-07	
416	1.600546e-08	-2.34141e-07	
417	1.604546e-08	-1.28341e-07	
418	1.608546e-08	-2.32579e-07	
419	1.612546e-08	-1.26456e-07	
420	1.616546e-08	-2.31037e-07	
421	1.620546e-08	-1.24593e-07	
422	1.624546e-08	-2.29515e-07	
423	1.628546e-08	-1.22753e-07	
424	1.632546e-08	-2.28012e-07	
425	1.636546e-08	-1.20934e-07	
426	1.640546e-08	-2.26529e-07	
427	1.644546e-08	-1.19137e-07	
428	1.648546e-08	-2.25065e-07	
429	1.652546e-08	-1.17361e-07	
430	1.656546e-08	-2.23619e-07	
431	1.660546e-08	-1.15605e-07	
432	1.664546e-08	-2.22192e-07	
433	1.668546e-08	-1.13871e-07	
434	1.672546e-08	-2.20782e-07	
435	1.676546e-08	-1.12156e-07	
436	1.680546e-08	-2.19391e-07	
437	1.684546e-08	-1.10461e-07	
438	1.688546e-08	-2.18016e-07	
439	1.692546e-08	-1.08785e-07	
440	1.696546e-08	-2.16659e-07	
441	1.700546e-08	-1.07129e-07	
442	1.704546e-08	-2.15318e-07	
443	1.708546e-08	-1.05492e-07	
444	1.712546e-08	-2.13994e-07	
445	1.716546e-08	-1.03873e-07	
446	1.720546e-08	-2.12685e-07	
447	1.724546e-08	-1.02272e-07	
448	1.728546e-08	-2.11393e-07	
449	1.732546e-08	-1.00690e-07	
450	1.736546e-08	-2.10116e-07	
451	1.740546e-08	-9.91250e-08	
452	1.744546e-08	-2.08855e-07	
453	1.748546e-08	-9.75777e-08	
454	1.752546e-08	-2.07609e-07	
455	1.756546e-08	-9.60477e-08	
456	1.760546e-08	-2.06377e-07	
457	1.764546e-08	-9.45347e-08	
458	1.768546e-08	-2.05160e-07	
459	1.772546e-08	-9.30383e-08	
460	1.776546e-08	-2.03958e-07	

Index   time            cf              
--------------------------------------------------------------------------------
461	1.780546e-08	-9.15583e-08	
462	1.784546e-08	-2.02770e-07	
463	1.788546e-08	-9.00949e-08	
464	1.792546e-08	-2.01595e-07	
465	1.796546e-08	-8.86470e-08	
466	1.800546e-08	-2.00434e-07	
467	1.804546e-08	-8.72153e-08	
468	1.808546e-08	-1.99287e-07	
469	1.812546e-08	-8.57987e-08	
470	1.816546e-08	-1.98152e-07	
471	1.820546e-08	-8.43978e-08	
472	1.824546e-08	-1.97031e-07	
473	1.828546e-08	-8.30116e-08	
474	1.832546e-08	-1.95923e-07	
475	1.836546e-08	-8.16407e-08	
476	1.840546e-08	-1.94827e-07	
477	1.844546e-08	-8.02839e-08	
478	1.848546e-08	-1.93743e-07	
479	1.852546e-08	-7.89419e-08	
480	1.856546e-08	-1.92672e-07	
481	1.860546e-08	-7.76141e-08	
482	1.864546e-08	-1.91612e-07	
483	1.868546e-08	-7.63003e-08	
484	1.872546e-08	-1.90565e-07	
485	1.876546e-08	-7.50004e-08	
486	1.880546e-08	-1.89528e-07	
487	1.884546e-08	-7.37141e-08	
488	1.888546e-08	-1.88504e-07	
489	1.892546e-08	-7.24413e-08	
490	1.896546e-08	-1.87490e-07	
491	1.900546e-08	-7.11817e-08	
492	1.904546e-08	-1.86488e-07	
493	1.908546e-08	-6.99353e-08	
494	1.912546e-08	-1.85497e-07	
495	1.916546e-08	-6.87017e-08	
496	1.920546e-08	-1.84516e-07	
497	1.924546e-08	-6.74809e-08	
498	1.928546e-08	-1.83546e-07	
499	1.932546e-08	-6.62727e-08	
500	1.936546e-08	-1.82586e-07	
501	1.940546e-08	-6.50768e-08	
502	1.944546e-08	-1.81636e-07	
503	1.948546e-08	-6.38932e-08	
504	1.952546e-08	-1.80697e-07	
505	1.956546e-08	-6.27216e-08	
506	1.960546e-08	-1.79767e-07	
507	1.964546e-08	-6.15620e-08	
508	1.968546e-08	-1.78848e-07	
509	1.972546e-08	-6.04141e-08	
510	1.976546e-08	-1.77937e-07	
511	1.980546e-08	-5.92778e-08	
512	1.984546e-08	-1.77037e-07	
513	1.988546e-08	-5.81529e-08	
514	1.992546e-08	-1.76145e-07	
515	1.996546e-08	-5.70394e-08	
516	2.000546e-08	-1.75263e-07	
517	2.004546e-08	-5.59370e-08	
518	2.008546e-08	-1.74390e-07	

Index   time            cf              
--------------------------------------------------------------------------------
519	2.012546e-08	-5.48456e-08	
520	2.016546e-08	-1.73526e-07	
521	2.020546e-08	-5.37650e-08	
522	2.024546e-08	-1.72671e-07	
523	2.028546e-08	-5.26952e-08	
524	2.032546e-08	-1.71824e-07	
525	2.036546e-08	-5.16359e-08	
526	2.040546e-08	-1.70986e-07	
527	2.044546e-08	-5.05871e-08	
528	2.048546e-08	-1.70156e-07	
529	2.052546e-08	-4.95487e-08	
530	2.056546e-08	-1.69335e-07	
531	2.060546e-08	-4.85204e-08	
532	2.064546e-08	-1.68521e-07	
533	2.068546e-08	-4.75022e-08	
534	2.072546e-08	-1.67716e-07	
535	2.076546e-08	-4.64939e-08	
536	2.080546e-08	-1.66919e-07	
537	2.084546e-08	-4.54954e-08	
538	2.088546e-08	-1.66129e-07	
539	2.092546e-08	-4.45066e-08	
540	2.096546e-08	-1.65348e-07	
541	2.100546e-08	-4.35274e-08	
542	2.104546e-08	-1.64573e-07	
543	2.108546e-08	-4.25576e-08	
544	2.112546e-08	-1.63807e-07	
545	2.116546e-08	-4.15972e-08	
546	2.120546e-08	-1.63047e-07	
547	2.124546e-08	-4.06460e-08	
548	2.128546e-08	-1.62295e-07	
549	2.132546e-08	-3.97040e-08	
550	2.136546e-08	-1.61550e-07	
551	2.140546e-08	-3.87709e-08	
552	2.144546e-08	-1.60813e-07	
553	2.148546e-08	-3.78467e-08	
554	2.152546e-08	-1.60082e-07	
555	2.156546e-08	-3.69313e-08	
556	2.160546e-08	-1.59358e-07	
557	2.164546e-08	-3.60245e-08	
558	2.168546e-08	-1.58641e-07	
559	2.172546e-08	-3.51264e-08	
560	2.176546e-08	-1.57930e-07	
561	2.180546e-08	-3.42367e-08	
562	2.184546e-08	-1.57226e-07	
563	2.188546e-08	-3.33554e-08	
564	2.192546e-08	-1.56529e-07	
565	2.196546e-08	-3.24823e-08	
566	2.200546e-08	-1.55838e-07	
567	2.204546e-08	-3.16175e-08	
568	2.208546e-08	-1.55154e-07	
569	2.212546e-08	-3.07607e-08	
570	2.216546e-08	-1.54475e-07	
571	2.220546e-08	-2.99119e-08	
572	2.224546e-08	-1.53803e-07	
573	2.228546e-08	-2.90710e-08	
574	2.232546e-08	-1.53137e-07	
575	2.236546e-08	-2.82380e-08	
576	2.240546e-08	-1.52477e-07	

Index   time            cf              
--------------------------------------------------------------------------------
577	2.244546e-08	-2.74126e-08	
578	2.248546e-08	-1.51822e-07	
579	2.252546e-08	-2.65949e-08	
580	2.256546e-08	-1.51174e-07	
581	2.260546e-08	-2.57847e-08	
582	2.264546e-08	-1.50531e-07	
583	2.268546e-08	-2.49819e-08	
584	2.272546e-08	-1.49895e-07	
585	2.276546e-08	-2.41863e-08	
586	2.280546e-08	-1.49263e-07	
587	2.284546e-08	-2.33986e-08	
588	2.288546e-08	-1.48638e-07	
589	2.292546e-08	-2.26173e-08	
590	2.296546e-08	-1.48017e-07	
591	2.300546e-08	-2.18440e-08	
592	2.304546e-08	-1.47402e-07	
593	2.308546e-08	-2.10769e-08	
594	2.312546e-08	-1.46792e-07	
595	2.316546e-08	-2.03176e-08	
596	2.320546e-08	-1.46188e-07	
597	2.324546e-08	-1.95643e-08	
598	2.328546e-08	-1.45588e-07	
599	2.332546e-08	-1.88184e-08	
600	2.336546e-08	-1.44994e-07	
601	2.340546e-08	-1.80791e-08	
602	2.344546e-08	-1.44405e-07	
603	2.348546e-08	-1.73465e-08	
604	2.352546e-08	-1.43821e-07	
605	2.356546e-08	-1.66205e-08	
606	2.360546e-08	-1.43242e-07	
607	2.364546e-08	-1.59010e-08	
608	2.368546e-08	-1.42667e-07	
609	2.372546e-08	-1.51880e-08	
610	2.376546e-08	-1.42098e-07	
611	2.380546e-08	-1.44813e-08	
612	2.384546e-08	-1.41533e-07	
613	2.388546e-08	-1.37809e-08	
614	2.392546e-08	-1.40972e-07	
615	2.396546e-08	-1.30868e-08	
616	2.400546e-08	-1.40417e-07	
617	2.404546e-08	-1.23989e-08	
618	2.408546e-08	-1.39866e-07	
619	2.412546e-08	-1.17170e-08	
620	2.416546e-08	-1.39319e-07	
621	2.420546e-08	-1.10413e-08	
622	2.424546e-08	-1.38777e-07	
623	2.428546e-08	-1.03715e-08	
624	2.432546e-08	-1.38239e-07	
625	2.436546e-08	-9.70765e-09	
626	2.440546e-08	-1.37705e-07	
627	2.444546e-08	-9.04967e-09	
628	2.448546e-08	-1.37176e-07	
629	2.452546e-08	-8.39744e-09	
630	2.456546e-08	-1.36651e-07	
631	2.460546e-08	-7.75104e-09	
632	2.464546e-08	-1.36130e-07	
633	2.468546e-08	-7.11020e-09	
634	2.472546e-08	-1.35614e-07	

Index   time            cf              
--------------------------------------------------------------------------------
635	2.476546e-08	-6.47505e-09	
636	2.480546e-08	-1.35101e-07	
637	2.484546e-08	-5.84546e-09	
638	2.488546e-08	-1.34592e-07	
639	2.492546e-08	-5.22137e-09	
640	2.496546e-08	-1.34087e-07	
641	2.500546e-08	-4.60265e-09	
642	2.504546e-08	-1.33587e-07	
643	2.508546e-08	-3.98947e-09	
644	2.512546e-08	-1.33090e-07	
645	2.516546e-08	-3.38155e-09	
646	2.520546e-08	-1.32596e-07	
647	2.524546e-08	-2.77891e-09	
648	2.528546e-08	-1.32107e-07	
649	2.532546e-08	-2.18150e-09	
650	2.536546e-08	-1.31621e-07	
651	2.540546e-08	-1.58927e-09	
652	2.544546e-08	-1.31139e-07	
653	2.548546e-08	-1.00216e-09	
654	2.552546e-08	-1.30661e-07	
655	2.556546e-08	-4.20122e-10	
656	2.560546e-08	-1.30186e-07	
657	2.564546e-08	1.568919e-10	
658	2.568546e-08	-1.29715e-07	
659	2.572546e-08	7.289313e-10	
660	2.576546e-08	-1.29247e-07	
661	2.580546e-08	1.296051e-09	
662	2.584546e-08	-1.28783e-07	
663	2.588546e-08	1.858293e-09	
664	2.592546e-08	-1.28322e-07	
665	2.596546e-08	2.415739e-09	
666	2.600546e-08	-1.27865e-07	
667	2.604546e-08	2.968346e-09	
668	2.608546e-08	-1.27411e-07	
669	2.612546e-08	3.516210e-09	
670	2.616546e-08	-1.26960e-07	
671	2.620546e-08	4.059404e-09	
672	2.624546e-08	-1.26512e-07	
673	2.628546e-08	4.597963e-09	
674	2.632546e-08	-1.26068e-07	
675	2.636546e-08	5.131928e-09	
676	2.640546e-08	-1.25627e-07	
677	2.644546e-08	5.661344e-09	
678	2.648546e-08	-1.25189e-07	
679	2.652546e-08	6.186253e-09	
680	2.656546e-08	-1.24754e-07	
681	2.660546e-08	6.706699e-09	
682	2.664546e-08	-1.24322e-07	
683	2.668546e-08	7.222724e-09	
684	2.672546e-08	-1.23893e-07	
685	2.676546e-08	7.734373e-09	
686	2.680546e-08	-1.23468e-07	
687	2.684546e-08	8.241687e-09	
688	2.688546e-08	-1.23045e-07	
689	2.692546e-08	8.744682e-09	
690	2.696546e-08	-1.22625e-07	
691	2.700546e-08	9.243469e-09	
692	2.704546e-08	-1.22208e-07	

Index   time            cf              
--------------------------------------------------------------------------------
693	2.708546e-08	9.738174e-09	
694	2.712546e-08	-1.21794e-07	
695	2.716546e-08	1.022837e-08	
696	2.720546e-08	-1.21383e-07	
697	2.724546e-08	1.071462e-08	
698	2.728546e-08	-1.20975e-07	
699	2.732546e-08	1.119678e-08	
700	2.736546e-08	-1.20569e-07	
701	2.740546e-08	1.167488e-08	
702	2.744546e-08	-1.20166e-07	
703	2.748546e-08	1.214896e-08	
704	2.752546e-08	-1.19766e-07	
705	2.756546e-08	1.261905e-08	
706	2.760546e-08	-1.19368e-07	
707	2.764546e-08	1.308520e-08	
708	2.768546e-08	-1.18974e-07	
709	2.772546e-08	1.354744e-08	
710	2.776546e-08	-1.18581e-07	
711	2.780546e-08	1.400580e-08	
712	2.784546e-08	-1.18192e-07	
713	2.788546e-08	1.446033e-08	
714	2.792546e-08	-1.17805e-07	
715	2.796546e-08	1.491106e-08	
716	2.800546e-08	-1.17420e-07	
717	2.804546e-08	1.535802e-08	
718	2.808546e-08	-1.17038e-07	
719	2.812546e-08	1.580124e-08	
720	2.816546e-08	-1.16659e-07	
721	2.820546e-08	1.624078e-08	
722	2.824546e-08	-1.16282e-07	
723	2.828546e-08	1.667675e-08	
724	2.832546e-08	-1.15907e-07	
725	2.836546e-08	1.710890e-08	
726	2.840546e-08	-1.15535e-07	
727	2.844546e-08	1.753751e-08	
728	2.848546e-08	-1.15165e-07	
729	2.852546e-08	1.796257e-08	
730	2.856546e-08	-1.14798e-07	
731	2.860546e-08	1.838439e-08	
732	2.864546e-08	-1.14432e-07	
733	2.868546e-08	1.880178e-08	
734	2.872546e-08	-1.14070e-07	
735	2.876546e-08	1.921696e-08	
736	2.880546e-08	-1.13709e-07	
737	2.884546e-08	1.962774e-08	
738	2.888546e-08	-1.13351e-07	
739	2.892546e-08	2.003545e-08	
740	2.896546e-08	-1.12994e-07	
741	2.900546e-08	2.043977e-08	
742	2.904546e-08	-1.12641e-07	
743	2.908546e-08	2.084074e-08	
744	2.912546e-08	-1.12289e-07	
745	2.916546e-08	2.123839e-08	
746	2.920546e-08	-1.11939e-07	
747	2.924546e-08	2.163274e-08	
748	2.928546e-08	-1.11592e-07	
749	2.932546e-08	2.202384e-08	
750	2.936546e-08	-1.11246e-07	

Index   time            cf              
--------------------------------------------------------------------------------
751	2.940546e-08	2.241169e-08	
752	2.944546e-08	-1.10903e-07	
753	2.948546e-08	2.279634e-08	
754	2.952546e-08	-1.10562e-07	
755	2.956546e-08	2.317782e-08	
756	2.960546e-08	-1.10223e-07	
757	2.964546e-08	2.355614e-08	
758	2.968546e-08	-1.09886e-07	
759	2.972546e-08	2.393134e-08	
760	2.976546e-08	-1.09551e-07	
761	2.980546e-08	2.430345e-08	
762	2.984546e-08	-1.09218e-07	
763	2.988546e-08	2.467250e-08	
764	2.992546e-08	-1.08886e-07	
765	2.996546e-08	2.503851e-08	
766	3.000546e-08	-1.08557e-07	
767	3.004546e-08	2.540150e-08	
768	3.008546e-08	-1.08230e-07	
769	3.012546e-08	2.576148e-08	
770	3.016546e-08	-1.07905e-07	
771	3.020546e-08	2.611851e-08	
772	3.024546e-08	-1.07581e-07	
773	3.028546e-08	2.647259e-08	
774	3.032546e-08	-1.07259e-07	
775	3.036546e-08	2.682377e-08	
776	3.040546e-08	-1.06940e-07	
777	3.044546e-08	2.717214e-08	
778	3.048546e-08	-1.06622e-07	
779	3.052546e-08	2.751737e-08	
780	3.056546e-08	-1.06306e-07	
781	3.060546e-08	2.786012e-08	
782	3.064546e-08	-1.05991e-07	
783	3.068546e-08	2.819979e-08	
784	3.072546e-08	-1.05679e-07	
785	3.076546e-08	2.853674e-08	
786	3.080546e-08	-1.05368e-07	
787	3.084546e-08	2.887092e-08	
788	3.088546e-08	-1.05059e-07	
789	3.092546e-08	2.920236e-08	
790	3.096546e-08	-1.04751e-07	
791	3.100546e-08	2.953107e-08	
792	3.104546e-08	-1.04446e-07	
793	3.108546e-08	2.985708e-08	
794	3.112546e-08	-1.04141e-07	
795	3.116546e-08	3.018041e-08	
796	3.120546e-08	-1.03839e-07	
797	3.124546e-08	3.050108e-08	
798	3.128546e-08	-1.03538e-07	
799	3.132546e-08	3.081912e-08	
800	3.136546e-08	-1.03239e-07	
801	3.140546e-08	3.113455e-08	
802	3.144546e-08	-1.02942e-07	
803	3.148546e-08	3.144739e-08	
804	3.152546e-08	-1.02646e-07	
805	3.156546e-08	3.175761e-08	
806	3.160546e-08	-1.02352e-07	
807	3.164546e-08	3.206536e-08	
808	3.168546e-08	-1.02059e-07	

Index   time            cf              
--------------------------------------------------------------------------------
809	3.172546e-08	3.237052e-08	
810	3.176546e-08	-1.01768e-07	
811	3.180546e-08	3.267318e-08	
812	3.184546e-08	-1.01478e-07	
813	3.188546e-08	3.297335e-08	
814	3.192546e-08	-1.01190e-07	
815	3.196546e-08	3.327106e-08	
816	3.200546e-08	-1.00904e-07	
817	3.204546e-08	3.356632e-08	
818	3.208546e-08	-1.00619e-07	
819	3.212546e-08	3.385915e-08	
820	3.216546e-08	-1.00335e-07	
821	3.220546e-08	3.414957e-08	
822	3.224546e-08	-1.00053e-07	
823	3.228546e-08	3.443760e-08	
824	3.232546e-08	-9.97724e-08	
825	3.236546e-08	3.472326e-08	
826	3.240546e-08	-9.94932e-08	
827	3.244546e-08	3.500658e-08	
828	3.248546e-08	-9.92154e-08	
829	3.252546e-08	3.528755e-08	
830	3.256546e-08	-9.89390e-08	
831	3.260546e-08	3.556622e-08	
832	3.264546e-08	-9.86640e-08	
833	3.268546e-08	3.584259e-08	
834	3.272546e-08	-9.83904e-08	
835	3.276546e-08	3.611668e-08	
836	3.280546e-08	-9.81182e-08	
837	3.284546e-08	3.638851e-08	
838	3.288546e-08	-9.78473e-08	
839	3.292546e-08	3.665811e-08	
840	3.296546e-08	-9.75778e-08	
841	3.300546e-08	3.692548e-08	
842	3.304546e-08	-9.73097e-08	
843	3.308546e-08	3.719066e-08	
844	3.312546e-08	-9.70428e-08	
845	3.316546e-08	3.745362e-08	
846	3.320546e-08	-9.67773e-08	
847	3.324546e-08	3.771446e-08	
848	3.328546e-08	-9.65130e-08	
849	3.332546e-08	3.797311e-08	
850	3.336546e-08	-9.62501e-08	
851	3.340546e-08	3.822964e-08	
852	3.344546e-08	-9.59884e-08	
853	3.348546e-08	3.848404e-08	
854	3.352546e-08	-9.57280e-08	
855	3.356546e-08	3.873635e-08	
856	3.360546e-08	-9.54689e-08	
857	3.364546e-08	3.898657e-08	
858	3.368546e-08	-9.52109e-08	
859	3.372546e-08	3.923471e-08	
860	3.376546e-08	-9.49543e-08	
861	3.380546e-08	3.948081e-08	
862	3.384546e-08	-9.46988e-08	
863	3.388546e-08	3.972486e-08	
864	3.392546e-08	-9.44445e-08	
865	3.396546e-08	3.996689e-08	
866	3.400546e-08	-9.41915e-08	

Index   time            cf              
--------------------------------------------------------------------------------
867	3.404546e-08	4.020692e-08	
868	3.408546e-08	-9.39396e-08	
869	3.412546e-08	4.044495e-08	
870	3.416546e-08	-9.36889e-08	
871	3.420546e-08	4.068100e-08	
872	3.424546e-08	-9.34393e-08	
873	3.428546e-08	4.091510e-08	
874	3.432546e-08	-9.31901e-08	
875	3.436546e-08	4.114622e-08	
876	3.440546e-08	-9.29445e-08	
877	3.444546e-08	4.137836e-08	
878	3.448546e-08	-9.26967e-08	
879	3.452546e-08	4.160481e-08	
880	3.456546e-08	-9.24534e-08	
881	3.460546e-08	4.183306e-08	
882	3.464546e-08	-9.22079e-08	
883	3.468546e-08	4.205573e-08	
884	3.472546e-08	-9.19668e-08	
885	3.476546e-08	4.228022e-08	
886	3.480546e-08	-9.17234e-08	
887	3.484546e-08	4.249916e-08	
888	3.488546e-08	-9.14845e-08	
889	3.492546e-08	4.271994e-08	
890	3.496546e-08	-9.12433e-08	
891	3.500546e-08	4.293521e-08	
892	3.504546e-08	-9.10066e-08	
893	3.508546e-08	4.315233e-08	
894	3.512546e-08	-9.07675e-08	
895	3.516546e-08	4.336399e-08	
896	3.520546e-08	-9.05328e-08	
897	3.524546e-08	4.357750e-08	
898	3.528546e-08	-9.02959e-08	
899	3.532546e-08	4.378561e-08	
900	3.536546e-08	-9.00632e-08	
901	3.540546e-08	4.399558e-08	
902	3.544546e-08	-8.98284e-08	
903	3.548546e-08	4.420020e-08	
904	3.552546e-08	-8.95978e-08	
905	3.556546e-08	4.440671e-08	
906	3.560546e-08	-8.93649e-08	
907	3.564546e-08	4.460789e-08	
908	3.568546e-08	-8.91363e-08	
909	3.572546e-08	4.481096e-08	
910	3.576546e-08	-8.89055e-08	
911	3.580546e-08	4.500874e-08	
912	3.584546e-08	-8.86789e-08	
913	3.588546e-08	4.520841e-08	
914	3.592546e-08	-8.84500e-08	
915	3.596546e-08	4.540284e-08	
916	3.600546e-08	-8.82253e-08	
917	3.604546e-08	4.559917e-08	
918	3.608546e-08	-8.79983e-08	
919	3.612546e-08	4.579030e-08	
920	3.616546e-08	-8.77744e-08	
921	3.620546e-08	4.598234e-08	
922	3.624546e-08	-8.75511e-08	
923	3.628546e-08	4.617206e-08	
924	3.632546e-08	-8.73286e-08	

Index   time            cf              
--------------------------------------------------------------------------------
925	3.636546e-08	4.636010e-08	
926	3.640546e-08	-8.71070e-08	
927	3.644546e-08	4.654654e-08	
928	3.648546e-08	-8.68863e-08	
929	3.652546e-08	4.673139e-08	
930	3.656546e-08	-8.66665e-08	
931	3.660546e-08	4.691466e-08	
932	3.664546e-08	-8.64475e-08	
933	3.668546e-08	4.709636e-08	
934	3.672546e-08	-8.62295e-08	
935	3.676546e-08	4.727651e-08	
936	3.680546e-08	-8.60124e-08	
937	3.684546e-08	4.745488e-08	
938	3.688546e-08	-8.57961e-08	
939	3.692546e-08	4.763215e-08	
940	3.696546e-08	-8.55807e-08	
941	3.700546e-08	4.780772e-08	
942	3.704546e-08	-8.53662e-08	
943	3.708546e-08	4.798176e-08	
944	3.712546e-08	-8.51526e-08	
945	3.716546e-08	4.815431e-08	
946	3.720546e-08	-8.49397e-08	
947	3.724546e-08	4.832536e-08	
948	3.728546e-08	-8.47278e-08	
949	3.732546e-08	4.849494e-08	
950	3.736546e-08	-8.45166e-08	
951	3.740546e-08	4.866306e-08	
952	3.744546e-08	-8.43063e-08	
953	3.748546e-08	4.882972e-08	
954	3.752546e-08	-8.40968e-08	
955	3.756546e-08	4.899493e-08	
956	3.760546e-08	-8.38881e-08	
957	3.764546e-08	4.915868e-08	
958	3.768546e-08	-8.36803e-08	
959	3.772546e-08	4.932101e-08	
960	3.776546e-08	-8.34732e-08	
961	3.780546e-08	4.948192e-08	
962	3.784546e-08	-8.32669e-08	
963	3.788546e-08	4.964143e-08	
964	3.792546e-08	-8.30614e-08	
965	3.796546e-08	4.979955e-08	
966	3.800546e-08	-8.28567e-08	
967	3.804546e-08	4.995628e-08	
968	3.808546e-08	-8.26527e-08	
969	3.812546e-08	5.011163e-08	
970	3.816546e-08	-8.24496e-08	
971	3.820546e-08	5.026565e-08	
972	3.824546e-08	-8.22472e-08	
973	3.828546e-08	5.041824e-08	
974	3.832546e-08	-8.20456e-08	
975	3.836546e-08	5.056958e-08	
976	3.840546e-08	-8.18447e-08	
977	3.844546e-08	5.071952e-08	
978	3.848546e-08	-8.16446e-08	
979	3.852546e-08	5.086815e-08	
980	3.856546e-08	-8.14452e-08	
981	3.860546e-08	5.101546e-08	
982	3.864546e-08	-8.12465e-08	

Index   time            cf              
--------------------------------------------------------------------------------
983	3.868546e-08	5.116147e-08	
984	3.872546e-08	-8.10487e-08	
985	3.876546e-08	5.130630e-08	
986	3.880546e-08	-8.08515e-08	
987	3.884546e-08	5.144959e-08	
988	3.888546e-08	-8.06553e-08	
989	3.892546e-08	5.159219e-08	
990	3.896546e-08	-8.04591e-08	
991	3.900546e-08	5.173255e-08	
992	3.904546e-08	-8.02643e-08	
993	3.908546e-08	5.187211e-08	
994	3.912546e-08	-8.00696e-08	
995	3.916546e-08	5.201065e-08	
996	3.920546e-08	-7.98767e-08	
997	3.924546e-08	5.214817e-08	
998	3.928546e-08	-7.96832e-08	
999	3.932546e-08	5.228349e-08	
1000	3.936546e-08	-7.94911e-08	
1001	3.940546e-08	5.241831e-08	
1002	3.944546e-08	-7.92996e-08	
1003	3.948546e-08	5.255174e-08	
1004	3.952546e-08	-7.91085e-08	
1005	3.956546e-08	5.268413e-08	
1006	3.960546e-08	-7.89184e-08	
1007	3.964546e-08	5.281461e-08	
1008	3.968546e-08	-7.87290e-08	
1009	3.972546e-08	5.294520e-08	
1010	3.976546e-08	-7.85400e-08	
1011	3.980546e-08	5.307368e-08	
1012	3.984546e-08	-7.83518e-08	
1013	3.988546e-08	5.320067e-08	
1014	3.992546e-08	-7.81642e-08	
1015	3.996546e-08	5.332735e-08	
1016	4.000546e-08	-7.79771e-08	
1017	4.004546e-08	5.345233e-08	
1018	4.008546e-08	-7.77911e-08	
1019	4.012546e-08	5.357645e-08	
1020	4.016546e-08	-7.76055e-08	
1021	4.020546e-08	5.369933e-08	
1022	4.024546e-08	-7.74202e-08	
1023	4.028546e-08	5.382084e-08	
1024	4.032546e-08	-7.72361e-08	
1025	4.036546e-08	5.394158e-08	
1026	4.040546e-08	-7.70524e-08	
1027	4.044546e-08	5.406110e-08	
1028	4.048546e-08	-7.68690e-08	
1029	4.052546e-08	5.417925e-08	
1030	4.056546e-08	-7.66868e-08	
1031	4.060546e-08	5.429665e-08	
1032	4.064546e-08	-7.65049e-08	
1033	4.068546e-08	5.441286e-08	
1034	4.072546e-08	-7.63233e-08	
1035	4.076546e-08	5.452773e-08	
1036	4.080546e-08	-7.61430e-08	
1037	4.084546e-08	5.464186e-08	
1038	4.088546e-08	-7.59629e-08	
1039	4.092546e-08	5.475482e-08	
1040	4.096546e-08	-7.57832e-08	

Index   time            cf              
--------------------------------------------------------------------------------
1041	4.100546e-08	5.486646e-08	
1042	4.104546e-08	-7.56047e-08	
1043	4.108546e-08	5.497750e-08	
1044	4.112546e-08	-7.54264e-08	
1045	4.116546e-08	5.508715e-08	
1046	4.120546e-08	-7.52482e-08	
1047	4.124546e-08	5.519550e-08	
1048	4.128546e-08	-7.50718e-08	
1049	4.132546e-08	5.530389e-08	
1050	4.136546e-08	-7.48947e-08	
1051	4.140546e-08	5.540973e-08	
1052	4.144546e-08	-7.47191e-08	
1053	4.148546e-08	5.551577e-08	
1054	4.152546e-08	-7.45434e-08	
1055	4.156546e-08	5.562017e-08	
1056	4.160546e-08	-7.43689e-08	
1057	4.164546e-08	5.572388e-08	
1058	4.168546e-08	-7.41942e-08	
1059	4.172546e-08	5.582601e-08	
1060	4.176546e-08	-7.40210e-08	
1061	4.180546e-08	5.592829e-08	
1062	4.184546e-08	-7.38477e-08	
1063	4.188546e-08	5.602856e-08	
1064	4.192546e-08	-7.36747e-08	
1065	4.196546e-08	5.612753e-08	
1066	4.200546e-08	-7.35030e-08	
1067	4.204546e-08	5.622712e-08	
1068	4.208546e-08	-7.33316e-08	
1069	4.212546e-08	5.632429e-08	
1070	4.216546e-08	-7.31601e-08	
1071	4.220546e-08	5.642056e-08	
1072	4.224546e-08	-7.29902e-08	
1073	4.228546e-08	5.651706e-08	
1074	4.232546e-08	-7.28203e-08	
1075	4.236546e-08	5.661178e-08	
1076	4.240546e-08	-7.26505e-08	
1077	4.244546e-08	5.670480e-08	
1078	4.248546e-08	-7.24818e-08	
1079	4.252546e-08	5.679822e-08	
1080	4.256546e-08	-7.23136e-08	
1081	4.260546e-08	5.689051e-08	
1082	4.264546e-08	-7.21456e-08	
1083	4.268546e-08	5.698097e-08	
1084	4.272546e-08	-7.19784e-08	
1085	4.276546e-08	5.707125e-08	
1086	4.280546e-08	-7.18116e-08	
1087	4.284546e-08	5.716056e-08	
1088	4.288546e-08	-7.16452e-08	
1089	4.292546e-08	5.724865e-08	
1090	4.296546e-08	-7.14798e-08	
1091	4.300546e-08	5.733651e-08	
1092	4.304546e-08	-7.13143e-08	
1093	4.308546e-08	5.742265e-08	
1094	4.312546e-08	-7.11493e-08	
1095	4.316546e-08	5.750805e-08	
1096	4.320546e-08	-7.09853e-08	
1097	4.324546e-08	5.759323e-08	
1098	4.328546e-08	-7.08215e-08	

Index   time            cf              
--------------------------------------------------------------------------------
1099	4.332546e-08	5.767694e-08	
1100	4.336546e-08	-7.06580e-08	
1101	4.340546e-08	5.775972e-08	
1102	4.344546e-08	-7.04955e-08	
1103	4.348546e-08	5.784204e-08	
1104	4.352546e-08	-7.03328e-08	
1105	4.356546e-08	5.792318e-08	
1106	4.360546e-08	-7.01711e-08	
1107	4.364546e-08	5.800369e-08	
1108	4.368546e-08	-7.00102e-08	
1109	4.372546e-08	5.808342e-08	
1110	4.376546e-08	-6.98487e-08	
1111	4.380546e-08	5.816169e-08	
1112	4.384546e-08	-6.96884e-08	
1113	4.388546e-08	5.823978e-08	
1114	4.392546e-08	-6.95287e-08	
1115	4.396546e-08	5.831703e-08	
1116	4.400546e-08	-6.93691e-08	
1117	4.404546e-08	5.839308e-08	
1118	4.408546e-08	-6.92101e-08	
1119	4.412546e-08	5.846871e-08	
1120	4.416546e-08	-6.90512e-08	
1121	4.420546e-08	5.854271e-08	
1122	4.424546e-08	-6.88933e-08	
1123	4.428546e-08	5.861684e-08	
1124	4.432546e-08	-6.87358e-08	
1125	4.436546e-08	5.869010e-08	
1126	4.440546e-08	-6.85786e-08	
1127	4.444546e-08	5.876196e-08	
1128	4.448546e-08	-6.84212e-08	
1129	4.452546e-08	5.883286e-08	
1130	4.456546e-08	-6.82656e-08	
1131	4.460546e-08	5.890436e-08	
1132	4.464546e-08	-6.81097e-08	
1133	4.468546e-08	5.897383e-08	
1134	4.472546e-08	-6.79539e-08	
1135	4.476546e-08	5.904262e-08	
1136	4.480546e-08	-6.77992e-08	
1137	4.484546e-08	5.911130e-08	
1138	4.488546e-08	-6.76446e-08	
1139	4.492546e-08	5.917852e-08	
1140	4.496546e-08	-6.74903e-08	
1141	4.500546e-08	5.924509e-08	
1142	4.504546e-08	-6.73368e-08	
1143	4.508546e-08	5.931146e-08	
1144	4.512546e-08	-6.71835e-08	
1145	4.516546e-08	5.937643e-08	
1146	4.520546e-08	-6.70306e-08	
1147	4.524546e-08	5.944095e-08	
1148	4.528546e-08	-6.68782e-08	
1149	4.532546e-08	5.950462e-08	
1150	4.536546e-08	-6.67263e-08	
1151	4.540546e-08	5.956775e-08	
1152	4.544546e-08	-6.65746e-08	
1153	4.548546e-08	5.962986e-08	
1154	4.552546e-08	-6.64235e-08	
1155	4.556546e-08	5.969158e-08	
1156	4.560546e-08	-6.62727e-08	

Index   time            cf              
--------------------------------------------------------------------------------
1157	4.564546e-08	5.975208e-08	
1158	4.568546e-08	-6.61225e-08	
1159	4.572546e-08	5.981264e-08	
1160	4.576546e-08	-6.59726e-08	
1161	4.580546e-08	5.987172e-08	
1162	4.584546e-08	-6.58229e-08	
1163	4.588546e-08	5.993037e-08	
1164	4.592546e-08	-6.56739e-08	
1165	4.596546e-08	5.998842e-08	
1166	4.600546e-08	-6.55252e-08	
1167	4.604546e-08	6.004578e-08	
1168	4.608546e-08	-6.53769e-08	
1169	4.612546e-08	6.010215e-08	
1170	4.616546e-08	-6.52291e-08	
1171	4.620546e-08	6.015837e-08	
1172	4.624546e-08	-6.50814e-08	
1173	4.628546e-08	6.021305e-08	
1174	4.632546e-08	-6.49342e-08	
1175	4.636546e-08	6.026788e-08	
1176	4.640546e-08	-6.47875e-08	
1177	4.644546e-08	6.032149e-08	
1178	4.648546e-08	-6.46413e-08	
1179	4.652546e-08	6.037508e-08	
1180	4.656546e-08	-6.44953e-08	
1181	4.660546e-08	6.042719e-08	
1182	4.664546e-08	-6.43495e-08	
1183	4.668546e-08	6.047887e-08	
1184	4.672546e-08	-6.42043e-08	
1185	4.676546e-08	6.053010e-08	
1186	4.680546e-08	-6.40599e-08	
1187	4.684546e-08	6.058131e-08	
1188	4.688546e-08	-6.39153e-08	
1189	4.692546e-08	6.063030e-08	
1190	4.696546e-08	-6.37708e-08	
1191	4.700546e-08	6.067960e-08	
1192	4.704546e-08	-6.36274e-08	
1193	4.708546e-08	6.072850e-08	
1194	4.712546e-08	-6.34844e-08	
1195	4.716546e-08	6.077664e-08	
1196	4.720546e-08	-6.33411e-08	
1197	4.724546e-08	6.082330e-08	
1198	4.728546e-08	-6.31984e-08	
1199	4.732546e-08	6.087031e-08	
1200	4.736546e-08	-6.30566e-08	
1201	4.740546e-08	6.091661e-08	
1202	4.744546e-08	-6.29145e-08	
1203	4.748546e-08	6.096141e-08	
1204	4.752546e-08	-6.27729e-08	
1205	4.756546e-08	6.100657e-08	
1206	4.760546e-08	-6.26322e-08	
1207	4.764546e-08	6.105104e-08	
1208	4.768546e-08	-6.24911e-08	
1209	4.772546e-08	6.109395e-08	
1210	4.776546e-08	-6.23506e-08	
1211	4.780546e-08	6.113731e-08	
1212	4.784546e-08	-6.22109e-08	
1213	4.788546e-08	6.117992e-08	
1214	4.792546e-08	-6.20709e-08	

Index   time            cf              
--------------------------------------------------------------------------------
1215	4.796546e-08	6.122108e-08	
1216	4.800546e-08	-6.19315e-08	
1217	4.804546e-08	6.126259e-08	
1218	4.808546e-08	-6.17929e-08	
1219	4.812546e-08	6.130346e-08	
1220	4.816546e-08	-6.16539e-08	
1221	4.820546e-08	6.134281e-08	
1222	4.824546e-08	-6.15155e-08	
1223	4.828546e-08	6.138259e-08	
1224	4.832546e-08	-6.13780e-08	
1225	4.836546e-08	6.142172e-08	
1226	4.840546e-08	-6.12408e-08	
1227	4.844546e-08	6.146091e-08	
1228	4.848546e-08	-6.11029e-08	
1229	4.852546e-08	6.149639e-08	
1230	4.856546e-08	-6.09655e-08	
1231	4.860546e-08	6.153444e-08	
1232	4.864546e-08	-6.08289e-08	
1233	4.868546e-08	6.157053e-08	
1234	4.872546e-08	-6.06935e-08	
1235	4.876546e-08	6.160856e-08	
1236	4.880546e-08	-6.05576e-08	
1237	4.884546e-08	6.164170e-08	
1238	4.888546e-08	-6.04207e-08	
1239	4.892546e-08	6.167664e-08	
1240	4.896546e-08	-6.02857e-08	
1241	4.900546e-08	6.171153e-08	
1242	4.904546e-08	-6.01521e-08	
1243	4.908546e-08	6.174721e-08	
1244	4.912546e-08	-6.00168e-08	
1245	4.916546e-08	6.177733e-08	
1246	4.920546e-08	-5.98815e-08	
1247	4.924546e-08	6.181107e-08	
1248	4.928546e-08	-5.97483e-08	
1249	4.932546e-08	6.184366e-08	
1250	4.936546e-08	-5.96153e-08	
1251	4.940546e-08	6.187640e-08	
1252	4.944546e-08	-5.94815e-08	
1253	4.948546e-08	6.190521e-08	
1254	4.952546e-08	-5.93480e-08	
1255	4.956546e-08	6.193693e-08	
1256	4.960546e-08	-5.92162e-08	
1257	4.964546e-08	6.196808e-08	
1258	4.968546e-08	-5.90834e-08	
1259	4.972546e-08	6.199533e-08	
1260	4.976546e-08	-5.89508e-08	
1261	4.980546e-08	6.202549e-08	
1262	4.984546e-08	-5.88200e-08	
1263	4.988546e-08	6.205504e-08	
1264	4.992546e-08	-5.86881e-08	
1265	4.996546e-08	6.208095e-08	
1266	5.000546e-08	-5.85565e-08	
1267	5.004546e-08	6.210934e-08	
1268	5.008546e-08	-5.84266e-08	
1269	5.012546e-08	6.213771e-08	
1270	5.016546e-08	-5.82957e-08	
1271	5.020546e-08	6.216162e-08	
1272	5.024546e-08	-5.81649e-08	

Index   time            cf              
--------------------------------------------------------------------------------
1273	5.028546e-08	6.218904e-08	
1274	5.032546e-08	-5.80360e-08	
1275	5.036546e-08	6.221550e-08	
1276	5.040546e-08	-5.79060e-08	
1277	5.044546e-08	6.223842e-08	
1278	5.048546e-08	-5.77763e-08	
1279	5.052546e-08	6.226401e-08	
1280	5.056546e-08	-5.76483e-08	
1281	5.060546e-08	6.228942e-08	
1282	5.064546e-08	-5.75190e-08	
1283	5.068546e-08	6.231032e-08	
1284	5.072546e-08	-5.73898e-08	
1285	5.076546e-08	6.233418e-08	
1286	5.080546e-08	-5.72630e-08	
1287	5.084546e-08	6.235883e-08	
1288	5.088546e-08	-5.71351e-08	
1289	5.092546e-08	6.237865e-08	
1290	5.096546e-08	-5.70065e-08	
1291	5.100546e-08	6.240043e-08	
1292	5.104546e-08	-5.68810e-08	
1293	5.108546e-08	6.242475e-08	
1294	5.112546e-08	-5.67532e-08	
1295	5.116546e-08	6.244172e-08	
1296	5.120546e-08	-5.66257e-08	
1297	5.124546e-08	6.246267e-08	
1298	5.128546e-08	-5.65001e-08	
1299	5.132546e-08	6.248391e-08	
1300	5.136546e-08	-5.63748e-08	
1301	5.140546e-08	6.250280e-08	
1302	5.144546e-08	-5.62476e-08	
1303	5.148546e-08	6.252073e-08	
1304	5.152546e-08	-5.61230e-08	
1305	5.156546e-08	6.254082e-08	
1306	5.160546e-08	-5.59974e-08	
1307	5.164546e-08	6.255660e-08	
1308	5.168546e-08	-5.58729e-08	
1309	5.172546e-08	6.257681e-08	
1310	5.176546e-08	-5.57484e-08	
1311	5.180546e-08	6.259331e-08	
1312	5.184546e-08	-5.56232e-08	
1313	5.188546e-08	6.260770e-08	
1314	5.192546e-08	-5.54988e-08	
1315	5.196546e-08	6.262549e-08	
1316	5.200546e-08	-5.53771e-08	
1317	5.204546e-08	6.264424e-08	
1318	5.208546e-08	-5.52521e-08	
1319	5.212546e-08	6.265504e-08	
1320	5.216546e-08	-5.51280e-08	
1321	5.220546e-08	6.267145e-08	
1322	5.224546e-08	-5.50072e-08	
1323	5.228546e-08	6.268911e-08	
1324	5.232546e-08	-5.48831e-08	
1325	5.236546e-08	6.269876e-08	
1326	5.240546e-08	-5.47599e-08	
1327	5.244546e-08	6.271393e-08	
1328	5.248546e-08	-5.46400e-08	
1329	5.252546e-08	6.273036e-08	
1330	5.256546e-08	-5.45166e-08	

Index   time            cf              
--------------------------------------------------------------------------------
1331	5.260546e-08	6.273874e-08	
1332	5.264546e-08	-5.43942e-08	
1333	5.268546e-08	6.275267e-08	
1334	5.272546e-08	-5.42751e-08	
1335	5.276546e-08	6.276788e-08	
1336	5.280546e-08	-5.41525e-08	
1337	5.284546e-08	6.277508e-08	
1338	5.288546e-08	-5.40309e-08	
1339	5.292546e-08	6.278776e-08	
1340	5.296546e-08	-5.39126e-08	
1341	5.300546e-08	6.280175e-08	
1342	5.304546e-08	-5.37909e-08	
1343	5.308546e-08	6.280779e-08	
1344	5.312546e-08	-5.36700e-08	
1345	5.316546e-08	6.281929e-08	
1346	5.320546e-08	-5.35525e-08	
1347	5.324546e-08	6.283208e-08	
1348	5.328546e-08	-5.34315e-08	
1349	5.332546e-08	6.283693e-08	
1350	5.336546e-08	-5.33115e-08	
1351	5.340546e-08	6.284728e-08	
1352	5.344546e-08	-5.31947e-08	
1353	5.348546e-08	6.285891e-08	
1354	5.352546e-08	-5.30745e-08	
1355	5.356546e-08	6.286265e-08	
1356	5.360546e-08	-5.29553e-08	
1357	5.364546e-08	6.287183e-08	
1358	5.368546e-08	-5.28392e-08	
1359	5.372546e-08	6.288229e-08	
1360	5.376546e-08	-5.27198e-08	
1361	5.380546e-08	6.288493e-08	
1362	5.384546e-08	-5.26013e-08	
1363	5.388546e-08	6.289299e-08	
1364	5.392546e-08	-5.24860e-08	
1365	5.396546e-08	6.290233e-08	
1366	5.400546e-08	-5.23673e-08	
1367	5.404546e-08	6.290387e-08	
1368	5.408546e-08	-5.22496e-08	
1369	5.412546e-08	6.291083e-08	
1370	5.416546e-08	-5.21352e-08	
1371	5.420546e-08	6.291913e-08	
1372	5.424546e-08	-5.20170e-08	
1373	5.428546e-08	6.291950e-08	
1374	5.432546e-08	-5.19010e-08	
1375	5.436546e-08	6.292688e-08	
1376	5.440546e-08	-5.17860e-08	
1377	5.444546e-08	6.293042e-08	
1378	5.448546e-08	-5.16683e-08	
1379	5.452546e-08	6.293238e-08	
1380	5.456546e-08	-5.15537e-08	
1381	5.460546e-08	6.293841e-08	
1382	5.464546e-08	-5.14403e-08	
1383	5.468546e-08	6.294223e-08	
1384	5.472546e-08	-5.13230e-08	
1385	5.476546e-08	6.294099e-08	
1386	5.480546e-08	-5.12075e-08	
1387	5.484546e-08	6.294476e-08	
1388	5.488546e-08	-5.10953e-08	

Index   time            cf              
--------------------------------------------------------------------------------
1389	5.492546e-08	6.295024e-08	
1390	5.496546e-08	-5.09805e-08	
1391	5.500546e-08	6.294885e-08	
1392	5.504546e-08	-5.08652e-08	
1393	5.508546e-08	6.294935e-08	
1394	5.512546e-08	-5.07520e-08	
1395	5.516546e-08	6.295256e-08	
1396	5.520546e-08	-5.06384e-08	
1397	5.524546e-08	6.295282e-08	
1398	5.528546e-08	-5.05256e-08	
1399	5.532546e-08	6.295317e-08	
1400	5.536546e-08	-5.04125e-08	
1401	5.540546e-08	6.295312e-08	
1402	5.544546e-08	-5.02988e-08	
1403	5.548546e-08	6.295260e-08	
1404	5.552546e-08	-5.01862e-08	
1405	5.556546e-08	6.295231e-08	
1406	5.560546e-08	-5.00744e-08	
1407	5.564546e-08	6.295130e-08	
1408	5.568546e-08	-4.99621e-08	
1409	5.572546e-08	6.294970e-08	
1410	5.576546e-08	-4.98497e-08	
1411	5.580546e-08	6.294886e-08	
1412	5.584546e-08	-4.97381e-08	
1413	5.588546e-08	6.294681e-08	
1414	5.592546e-08	-4.96268e-08	
1415	5.596546e-08	6.294399e-08	
1416	5.600546e-08	-4.95156e-08	
1417	5.604546e-08	6.294209e-08	
1418	5.608546e-08	-4.94049e-08	
1419	5.612546e-08	6.294077e-08	
1420	5.616546e-08	-4.92934e-08	
1421	5.620546e-08	6.293492e-08	
1422	5.624546e-08	-4.91819e-08	
1423	5.628546e-08	6.293102e-08	
1424	5.632546e-08	-4.90731e-08	
1425	5.636546e-08	6.293105e-08	
1426	5.640546e-08	-4.89634e-08	
1427	5.644546e-08	6.292544e-08	
1428	5.648546e-08	-4.88515e-08	
1429	5.652546e-08	6.291841e-08	
1430	5.656546e-08	-4.87430e-08	
1431	5.660546e-08	6.291766e-08	
1432	5.664546e-08	-4.86343e-08	
1433	5.668546e-08	6.291181e-08	
1434	5.672546e-08	-4.85228e-08	
1435	5.676546e-08	6.290311e-08	
1436	5.680546e-08	-4.84150e-08	
1437	5.684546e-08	6.290209e-08	
1438	5.688546e-08	-4.83073e-08	
1439	5.692546e-08	6.289536e-08	
1440	5.696546e-08	-4.81966e-08	
1441	5.700546e-08	6.288611e-08	
1442	5.704546e-08	-4.80890e-08	
1443	5.708546e-08	6.288333e-08	
1444	5.712546e-08	-4.79819e-08	
1445	5.716546e-08	6.287633e-08	
1446	5.720546e-08	-4.78722e-08	

Index   time            cf              
--------------------------------------------------------------------------------
1447	5.724546e-08	6.286622e-08	
1448	5.728546e-08	-4.77654e-08	
1449	5.732546e-08	6.286289e-08	
1450	5.736546e-08	-4.76585e-08	
1451	5.740546e-08	6.285417e-08	
1452	5.744546e-08	-4.75494e-08	
1453	5.748546e-08	6.284384e-08	
1454	5.752546e-08	-4.74435e-08	
1455	5.756546e-08	6.283963e-08	
1456	5.760546e-08	-4.73375e-08	
1457	5.764546e-08	6.283040e-08	
1458	5.768546e-08	-4.72286e-08	
1459	5.772546e-08	6.281838e-08	
1460	5.776546e-08	-4.71233e-08	
1461	5.780546e-08	6.281393e-08	
1462	5.784546e-08	-4.70182e-08	
1463	5.788546e-08	6.280388e-08	
1464	5.792546e-08	-4.69101e-08	
1465	5.796546e-08	6.279137e-08	
1466	5.800546e-08	-4.68052e-08	
1467	5.804546e-08	6.278557e-08	
1468	5.808546e-08	-4.67003e-08	
1469	5.812546e-08	6.277446e-08	
1470	5.816546e-08	-4.65931e-08	
1471	5.820546e-08	6.276175e-08	
1472	5.824546e-08	-4.64891e-08	
1473	5.828546e-08	6.275510e-08	
1474	5.832546e-08	-4.63850e-08	
1475	5.836546e-08	6.274350e-08	
1476	5.840546e-08	-4.62782e-08	
1477	5.844546e-08	6.272948e-08	
1478	5.848546e-08	-4.61746e-08	
1479	5.852546e-08	6.272212e-08	
1480	5.856546e-08	-4.60711e-08	
1481	5.860546e-08	6.270982e-08	
1482	5.864546e-08	-4.59650e-08	
1483	5.868546e-08	6.269508e-08	
1484	5.872546e-08	-4.58620e-08	
1485	5.876546e-08	6.268696e-08	
1486	5.880546e-08	-4.57592e-08	
1487	5.884546e-08	6.267399e-08	
1488	5.888546e-08	-4.56537e-08	
1489	5.892546e-08	6.265848e-08	
1490	5.896546e-08	-4.55513e-08	
1491	5.900546e-08	6.264960e-08	
1492	5.904546e-08	-4.54491e-08	
1493	5.908546e-08	6.263582e-08	
1494	5.912546e-08	-4.53441e-08	
1495	5.916546e-08	6.261962e-08	
1496	5.920546e-08	-4.52424e-08	
1497	5.924546e-08	6.261001e-08	
1498	5.928546e-08	-4.51407e-08	
1499	5.932546e-08	6.259552e-08	
1500	5.936546e-08	-4.50364e-08	
1501	5.940546e-08	6.257865e-08	
1502	5.944546e-08	-4.49352e-08	
1503	5.948546e-08	6.256830e-08	
1504	5.952546e-08	-4.48342e-08	

Index   time            cf              
--------------------------------------------------------------------------------
1505	5.956546e-08	6.255311e-08	
1506	5.960546e-08	-4.47305e-08	
1507	5.964546e-08	6.253553e-08	
1508	5.968546e-08	-4.46299e-08	
1509	5.972546e-08	6.252449e-08	
1510	5.976546e-08	-4.45294e-08	
1511	5.980546e-08	6.250861e-08	
1512	5.984546e-08	-4.44263e-08	
1513	5.988546e-08	6.249036e-08	
1514	5.992546e-08	-4.43262e-08	
1515	5.996546e-08	6.247861e-08	
1516	6.000000e-08	-4.18653e-08	
1517	6.000000e-08	-6.71800e-03	
1518	6.000000e-08	-2.00223e-02	
1519	6.000000e-08	-5.02918e-02	
1520	6.000000e-08	-7.20062e-02	
1521	6.000000e-08	-7.18009e-02	
1522	6.000000e-08	-7.13567e-02	
1523	6.000000e-08	-7.07047e-02	
1524	6.000000e-08	-6.92740e-02	
1525	6.000000e-08	-6.66270e-02	
1526	6.000000e-08	-6.20119e-02	
1527	6.000000e-08	-5.47582e-02	
1528	6.000001e-08	-4.55436e-02	
1529	6.000001e-08	-3.73785e-02	
1530	6.000003e-08	-3.34727e-02	
1531	6.000006e-08	-3.28102e-02	
1532	6.000010e-08	-3.25300e-02	
1533	6.000019e-08	-3.23708e-02	
1534	6.000036e-08	-3.18518e-02	
1535	6.000070e-08	-3.09743e-02	
1536	6.000139e-08	-2.90648e-02	
1537	6.000277e-08	-2.55412e-02	
1538	6.000553e-08	-1.92553e-02	
1539	6.001105e-08	-9.77121e-03	
1540	6.002209e-08	1.323009e-03	
1541	6.004417e-08	3.918087e-03	
1542	6.008417e-08	1.309636e-03	
1543	6.012417e-08	1.289102e-03	
1544	6.016417e-08	1.155102e-03	
1545	6.020417e-08	1.266541e-03	
1546	6.024417e-08	1.437191e-03	
1547	6.028417e-08	1.159309e-03	
1548	6.032417e-08	1.077865e-03	
1549	6.036417e-08	1.026596e-03	
1550	6.040417e-08	1.474141e-03	
1551	6.044417e-08	1.773096e-03	
1552	6.048417e-08	1.676257e-03	
1553	6.052417e-08	1.188850e-03	
1554	6.056417e-08	9.173483e-04	
1555	6.060417e-08	5.407936e-04	
1556	6.064417e-08	3.959532e-04	
1557	6.068417e-08	1.993704e-04	
1558	6.072417e-08	2.102885e-04	
1559	6.076417e-08	1.338178e-04	
1560	6.080417e-08	2.520269e-04	
1561	6.084417e-08	1.308817e-04	
1562	6.088417e-08	1.422829e-04	

Index   time            cf              
--------------------------------------------------------------------------------
1563	6.092417e-08	4.691851e-05	
1564	6.096417e-08	1.109350e-04	
1565	6.100417e-08	2.805350e-05	
1566	6.104417e-08	9.474759e-05	
1567	6.108417e-08	1.452178e-05	
1568	6.112417e-08	8.565007e-05	
1569	6.116417e-08	8.854885e-06	
1570	6.120417e-08	7.505984e-05	
1571	6.124417e-08	-7.73594e-06	
1572	6.128417e-08	5.702855e-05	
1573	6.132417e-08	-7.96435e-06	
1574	6.136417e-08	1.661177e-04	
1575	6.140417e-08	1.222516e-04	
1576	6.144417e-08	1.242658e-04	
1577	6.148417e-08	2.145452e-05	
1578	6.152417e-08	8.319727e-05	
1579	6.156417e-08	-2.95625e-06	
1580	6.160417e-08	5.874571e-05	
1581	6.164417e-08	-3.07072e-05	
1582	6.168417e-08	2.931672e-05	
1583	6.172417e-08	-5.66060e-05	
1584	6.176417e-08	1.109933e-05	
1585	6.180417e-08	-6.22067e-05	
1586	6.184417e-08	1.641223e-05	
1587	6.188417e-08	-4.61571e-05	
1588	6.192417e-08	3.795833e-05	
1589	6.196417e-08	-2.24699e-05	
1590	6.200417e-08	5.069461e-05	
1591	6.204417e-08	-2.96395e-05	
1592	6.208417e-08	4.438605e-05	
1593	6.212417e-08	-3.15293e-05	
1594	6.216417e-08	4.095639e-05	
1595	6.220417e-08	-3.05323e-05	
1596	6.224417e-08	4.183465e-05	
1597	6.228417e-08	-2.89120e-05	
1598	6.232417e-08	4.434388e-05	
1599	6.236417e-08	-2.73708e-05	
1600	6.240417e-08	4.443282e-05	
1601	6.244417e-08	-2.64507e-05	
1602	6.248417e-08	4.508527e-05	
1603	6.252417e-08	-2.71012e-05	
1604	6.256417e-08	4.370148e-05	
1605	6.260417e-08	-2.75503e-05	
1606	6.264417e-08	4.747572e-05	
1607	6.268417e-08	-2.33383e-05	
1608	6.272417e-08	4.429106e-05	
1609	6.276417e-08	-2.77724e-05	
1610	6.280417e-08	4.991394e-05	
1611	6.284417e-08	-1.02442e-05	
1612	6.288417e-08	7.269195e-05	
1613	6.292417e-08	1.700099e-05	
1614	6.296417e-08	7.900995e-05	
1615	6.300417e-08	-3.45385e-04	
1616	6.304417e-08	-7.58296e-04	
1617	6.308417e-08	-6.83801e-04	
1618	6.312417e-08	4.577884e-04	
1619	6.316417e-08	1.220225e-03	
1620	6.320417e-08	1.252468e-03	

Index   time            cf              
--------------------------------------------------------------------------------
1621	6.324417e-08	8.227240e-04	
1622	6.328417e-08	3.330862e-04	
1623	6.332417e-08	-8.06633e-05	
1624	6.336417e-08	-1.20465e-05	
1625	6.340417e-08	-2.10396e-05	
1626	6.344417e-08	1.556686e-05	
1627	6.348417e-08	-8.44279e-05	
1628	6.352417e-08	-9.44778e-06	
1629	6.356417e-08	-7.98615e-05	
1630	6.360417e-08	-1.48562e-05	
1631	6.364417e-08	-7.04917e-05	
1632	6.368417e-08	1.674400e-05	
1633	6.372417e-08	-4.33874e-05	
1634	6.376417e-08	2.547588e-05	
1635	6.380417e-08	-3.88949e-05	
1636	6.384417e-08	3.443222e-05	
1637	6.388417e-08	-3.46191e-05	
1638	6.392417e-08	3.781964e-05	
1639	6.396417e-08	-3.53684e-05	
1640	6.400417e-08	3.431023e-05	
1641	6.404417e-08	-2.74041e-05	
1642	6.408417e-08	5.048211e-05	
1643	6.412417e-08	-2.52425e-05	
1644	6.416417e-08	3.864006e-05	
1645	6.420417e-08	-2.98017e-05	
1646	6.424417e-08	3.608149e-05	
1647	6.428417e-08	-5.89419e-05	
1648	6.432417e-08	-3.17541e-05	
1649	6.436417e-08	-1.38686e-04	
1650	6.440417e-08	-9.76478e-05	
1651	6.444417e-08	-2.26312e-04	
1652	6.448417e-08	-2.35183e-04	
1653	6.452417e-08	-1.93988e-04	
1654	6.456417e-08	1.460379e-04	
1655	6.460417e-08	2.262240e-04	
1656	6.464417e-08	2.429210e-04	
1657	6.468417e-08	3.689644e-05	
1658	6.472417e-08	-6.92676e-05	
1659	6.476417e-08	2.530767e-04	
1660	6.480417e-08	8.415822e-04	
1661	6.484417e-08	6.248206e-04	
1662	6.488417e-08	2.680692e-05	
1663	6.492417e-08	-5.39823e-04	
1664	6.496417e-08	-3.50193e-04	
1665	6.500417e-08	-2.54353e-04	
1666	6.504417e-08	-9.00663e-05	
1667	6.508417e-08	-9.57897e-05	
1668	6.512417e-08	5.393988e-06	
1669	6.516417e-08	-4.44233e-05	
1670	6.520417e-08	3.266775e-05	
1671	6.524417e-08	-2.96754e-05	
1672	6.528417e-08	4.309544e-05	
1673	6.532417e-08	-2.25387e-05	
1674	6.536417e-08	4.307452e-05	
1675	6.540417e-08	-3.47485e-05	
1676	6.544417e-08	2.600400e-05	
1677	6.548417e-08	-3.55075e-05	
1678	6.552417e-08	3.050455e-05	

Index   time            cf              
--------------------------------------------------------------------------------
1679	6.556417e-08	-5.34251e-05	
1680	6.560417e-08	6.504402e-05	
1681	6.564417e-08	1.577439e-04	
1682	6.568417e-08	3.898617e-04	
1683	6.572417e-08	3.572798e-04	
1684	6.576417e-08	-3.23676e-06	
1685	6.580417e-08	-1.09084e-03	
1686	6.584417e-08	-1.19185e-03	
1687	6.588417e-08	-5.67470e-04	
1688	6.592417e-08	-8.95761e-04	
1689	6.596417e-08	9.236583e-05	
1690	6.600417e-08	6.365584e-04	
1691	6.604417e-08	2.285054e-04	
1692	6.608417e-08	1.656813e-04	
1693	6.612417e-08	-7.49918e-06	
1694	6.616417e-08	-1.42424e-05	
1695	6.620417e-08	-1.22416e-04	
1696	6.624417e-08	-3.62067e-05	
1697	6.628417e-08	-8.91901e-05	
1698	6.632417e-08	8.033358e-05	
1699	6.636417e-08	3.448827e-05	
1700	6.640417e-08	5.379729e-05	
1701	6.644417e-08	-3.19805e-05	
1702	6.648417e-08	3.741958e-05	
1703	6.652417e-08	-3.11979e-05	
1704	6.656417e-08	3.870247e-05	
1705	6.660417e-08	-3.15916e-05	
1706	6.664417e-08	3.811605e-05	
1707	6.668417e-08	-2.87515e-05	
1708	6.672417e-08	4.004269e-05	
1709	6.676417e-08	-3.40388e-05	
1710	6.680417e-08	3.052978e-05	
1711	6.684417e-08	-4.65921e-05	
1712	6.688417e-08	4.340342e-05	
1713	6.692417e-08	7.667896e-05	
1714	6.696417e-08	1.618650e-04	
1715	6.700417e-08	2.394324e-05	
1716	6.704417e-08	6.889142e-05	
1717	6.708417e-08	-1.14699e-05	
1718	6.712417e-08	4.736149e-05	
1719	6.716417e-08	-3.09697e-05	
1720	6.720417e-08	2.617541e-05	
1721	6.724417e-08	-6.06276e-05	
1722	6.728417e-08	-8.22236e-06	
1723	6.732417e-08	-7.53835e-05	
1724	6.736417e-08	-8.22901e-06	
1725	6.740417e-08	-6.93924e-05	
1726	6.744417e-08	8.790873e-06	
1727	6.748417e-08	-4.34472e-05	
1728	6.752417e-08	3.747393e-05	
1729	6.756417e-08	-3.04748e-05	
1730	6.760417e-08	2.997332e-05	
1731	6.764417e-08	-3.60268e-05	
1732	6.768417e-08	2.725792e-05	
1733	6.772417e-08	-3.91069e-05	
1734	6.776417e-08	2.841863e-05	
1735	6.780417e-08	-3.76455e-05	
1736	6.784417e-08	3.132898e-05	

Index   time            cf              
--------------------------------------------------------------------------------
1737	6.788417e-08	-3.47633e-05	
1738	6.792417e-08	3.238101e-05	
1739	6.796417e-08	-3.33967e-05	
1740	6.800417e-08	3.400318e-05	
1741	6.804417e-08	-3.28590e-05	
1742	6.808417e-08	3.318440e-05	
1743	6.812417e-08	-3.31850e-05	
1744	6.816417e-08	3.562811e-05	
1745	6.820417e-08	-2.77040e-05	
1746	6.824417e-08	3.606385e-05	
1747	6.828417e-08	-3.29741e-05	
1748	6.832417e-08	3.760264e-05	
1749	6.836417e-08	-1.87499e-05	
1750	6.840417e-08	5.974011e-05	
1751	6.844417e-08	6.437261e-06	
1752	6.848417e-08	8.102102e-05	
1753	6.852417e-08	-1.53876e-04	
1754	6.856417e-08	-6.01957e-04	
1755	6.860417e-08	-9.28811e-04	
1756	6.864417e-08	4.562511e-08	
1757	6.868417e-08	1.010512e-03	
1758	6.872417e-08	1.332297e-03	
1759	6.876417e-08	9.897193e-04	
1760	6.880417e-08	5.633248e-04	
1761	6.884417e-08	-7.74757e-06	
1762	6.888417e-08	-3.28837e-05	
1763	6.892417e-08	-3.86187e-05	
1764	6.896417e-08	3.287700e-05	
1765	6.900417e-08	-8.18209e-05	
1766	6.904417e-08	-1.79915e-05	
1767	6.908417e-08	-7.87831e-05	
1768	6.912417e-08	-2.08172e-05	
1769	6.916417e-08	-7.94712e-05	
1770	6.920417e-08	4.583520e-06	
1771	6.924417e-08	-4.70473e-05	
1772	6.928417e-08	2.006142e-05	
1773	6.932417e-08	-4.29965e-05	
1774	6.936417e-08	2.820687e-05	
1775	6.940417e-08	-3.65472e-05	
1776	6.944417e-08	3.147998e-05	
1777	6.948417e-08	-3.35858e-05	
1778	6.952417e-08	2.799998e-05	
1779	6.956417e-08	-3.50333e-05	
1780	6.960417e-08	4.280144e-05	
1781	6.964417e-08	-2.21788e-05	
1782	6.968417e-08	3.637094e-05	
1783	6.972417e-08	-3.17395e-05	
1784	6.976417e-08	3.509332e-05	
1785	6.980417e-08	-4.01743e-05	
1786	6.984417e-08	-7.33237e-06	
1787	6.988417e-08	-1.16375e-04	
1788	6.992417e-08	-8.32335e-05	
1789	6.996417e-08	-1.80475e-04	
1790	7.000417e-08	-1.93972e-04	
1791	7.004417e-08	-2.97290e-04	
1792	7.008417e-08	-4.34764e-05	
1793	7.012417e-08	1.473111e-04	
1794	7.016417e-08	2.926091e-04	

Index   time            cf              
--------------------------------------------------------------------------------
1795	7.020417e-08	1.270200e-04	
1796	7.024417e-08	5.837794e-05	
1797	7.028417e-08	-5.75616e-05	
1798	7.032417e-08	4.971054e-04	
1799	7.036417e-08	7.891007e-04	
1800	7.040417e-08	4.783830e-04	
1801	7.044417e-08	-2.98744e-04	
1802	7.048417e-08	-4.76532e-04	
1803	7.052417e-08	-3.29890e-04	
1804	7.056417e-08	-1.47581e-04	
1805	7.060417e-08	-1.27540e-04	
1806	7.064417e-08	-1.49002e-05	
1807	7.068417e-08	-5.26459e-05	
1808	7.072417e-08	2.431942e-05	
1809	7.076417e-08	-3.23115e-05	
1810	7.080417e-08	3.599175e-05	
1811	7.084417e-08	-2.39543e-05	
1812	7.088417e-08	4.190990e-05	
1813	7.092417e-08	-2.57170e-05	
1814	7.096417e-08	2.764501e-05	
1815	7.100417e-08	-4.19130e-05	
1816	7.104417e-08	2.954741e-05	
1817	7.108417e-08	-3.96962e-05	
1818	7.112417e-08	1.082883e-05	
1819	7.116417e-08	1.166982e-05	
1820	7.120417e-08	2.450081e-04	
1821	7.124417e-08	3.373940e-04	
1822	7.128417e-08	3.896169e-04	
1823	7.132417e-08	-1.47784e-04	
1824	7.136417e-08	-1.17672e-03	
1825	7.140417e-08	-1.11705e-03	
1826	7.144417e-08	-5.34465e-04	
1827	7.148417e-08	-9.29741e-04	
1828	7.152417e-08	3.015316e-04	
1829	7.156417e-08	5.318367e-04	
1830	7.160417e-08	2.658648e-04	
1831	7.164417e-08	8.487286e-05	
1832	7.168417e-08	4.500002e-05	
1833	7.172417e-08	-8.94333e-05	
1834	7.176417e-08	-5.80190e-05	
1835	7.180417e-08	-1.02196e-04	
1836	7.184417e-08	-1.75058e-05	
1837	7.188417e-08	2.156742e-05	
1838	7.192417e-08	9.467506e-05	
1839	7.196417e-08	-1.86857e-05	
1840	7.200417e-08	3.147303e-05	
1841	7.204417e-08	-2.98816e-05	
1842	7.208417e-08	3.284688e-05	
1843	7.212417e-08	-2.89334e-05	
1844	7.216417e-08	3.250020e-05	
1845	7.220417e-08	-2.92217e-05	
1846	7.224417e-08	3.509494e-05	
1847	7.228417e-08	-2.73019e-05	
1848	7.232417e-08	3.024316e-05	
1849	7.236417e-08	-3.55815e-05	
1850	7.240417e-08	1.898992e-05	
1851	7.244417e-08	-3.41577e-05	
1852	7.248417e-08	1.245048e-04	

Index   time            cf              
--------------------------------------------------------------------------------
1853	7.252417e-08	1.012435e-04	
1854	7.256417e-08	9.828956e-05	
1855	7.260417e-08	3.231085e-06	
1856	7.264417e-08	5.483990e-05	
1857	7.268417e-08	-1.83465e-05	
1858	7.272417e-08	3.595827e-05	
1859	7.276417e-08	-3.69617e-05	
1860	7.280417e-08	6.174586e-06	
1861	7.284417e-08	-7.45162e-05	
1862	7.288417e-08	-1.17963e-05	
1863	7.292417e-08	-7.49372e-05	
1864	7.296417e-08	-7.11865e-06	
1865	7.300417e-08	-6.00971e-05	
1866	7.304417e-08	1.705130e-05	
1867	7.308417e-08	-3.12026e-05	
1868	7.312417e-08	3.479065e-05	
1869	7.316417e-08	-3.57056e-05	
1870	7.320417e-08	2.786287e-05	
1871	7.324417e-08	-3.82287e-05	
1872	7.328417e-08	2.390507e-05	
1873	7.332417e-08	-3.74981e-05	
1874	7.336417e-08	2.527651e-05	
1875	7.340417e-08	-3.46076e-05	
1876	7.344417e-08	2.820437e-05	
1877	7.348417e-08	-3.35435e-05	
1878	7.352417e-08	2.970607e-05	
1879	7.356417e-08	-3.18274e-05	
1880	7.360417e-08	3.025442e-05	
1881	7.364417e-08	-3.25213e-05	
1882	7.368417e-08	2.994415e-05	
1883	7.372417e-08	-2.98013e-05	
1884	7.376417e-08	3.547555e-05	
1885	7.380417e-08	-2.96641e-05	
1886	7.384417e-08	3.017105e-05	
1887	7.388417e-08	-2.75140e-05	
1888	7.392417e-08	4.489470e-05	
1889	7.396417e-08	-5.65406e-06	
1890	7.400417e-08	7.071289e-05	
1891	7.404417e-08	1.445284e-05	
1892	7.408417e-08	-1.06260e-04	
1893	7.412417e-08	-6.81777e-04	
1894	7.416417e-08	-8.53628e-04	
1895	7.420417e-08	-2.45881e-05	
1896	7.424417e-08	1.096709e-03	
1897	7.428417e-08	1.262267e-03	
1898	7.432417e-08	1.040082e-03	
1899	7.436417e-08	4.773115e-04	
1900	7.440417e-08	4.637265e-05	
1901	7.444417e-08	-9.79188e-05	
1902	7.448417e-08	2.679782e-05	
1903	7.452417e-08	-3.43051e-05	
1904	7.456417e-08	-1.87284e-05	
1905	7.460417e-08	-8.27645e-05	
1906	7.464417e-08	-1.55586e-05	
1907	7.468417e-08	-8.55525e-05	
1908	7.472417e-08	-1.60715e-05	
1909	7.476417e-08	-5.90515e-05	
1910	7.480417e-08	1.584208e-05	

Index   time            cf              
--------------------------------------------------------------------------------
1911	7.484417e-08	-4.42192e-05	
1912	7.488417e-08	1.997779e-05	
1913	7.492417e-08	-3.58187e-05	
1914	7.496417e-08	2.601841e-05	
1915	7.500417e-08	-3.26111e-05	
1916	7.504417e-08	2.961179e-05	
1917	7.508417e-08	-3.45550e-05	
1918	7.512417e-08	2.611017e-05	
1919	7.516417e-08	-2.56855e-05	
1920	7.520417e-08	4.117624e-05	
1921	7.524417e-08	-2.42093e-05	
1922	7.528417e-08	3.010332e-05	
1923	7.532417e-08	-2.85286e-05	
1924	7.536417e-08	2.754975e-05	
1925	7.540417e-08	-5.81082e-05	
1926	7.544417e-08	-4.01786e-05	
1927	7.548417e-08	-1.38005e-04	
1928	7.552417e-08	-1.06735e-04	
1929	7.556417e-08	-2.26018e-04	
1930	7.560417e-08	-2.43330e-04	
1931	7.564417e-08	-1.90049e-04	
1932	7.568417e-08	1.407366e-04	
1933	7.572417e-08	2.276238e-04	
1934	7.576417e-08	2.338196e-04	
1935	7.580417e-08	3.728372e-05	
1936	7.584417e-08	-7.66740e-05	
1937	7.588417e-08	2.578912e-04	
1938	7.592417e-08	8.353580e-04	
1939	7.596417e-08	6.228840e-04	
1940	7.600417e-08	1.359216e-05	
1941	7.604417e-08	-5.39342e-04	
1942	7.608417e-08	-3.55542e-04	
1943	7.612417e-08	-2.51681e-04	
1944	7.616417e-08	-9.68764e-05	
1945	7.620417e-08	-9.39522e-05	
1946	7.624417e-08	-1.84710e-06	
1947	7.628417e-08	-4.28223e-05	
1948	7.632417e-08	2.544637e-05	
1949	7.636417e-08	-2.76682e-05	
1950	7.640417e-08	3.635437e-05	
1951	7.644417e-08	-2.08759e-05	
1952	7.648417e-08	3.508109e-05	
1953	7.652417e-08	-3.53114e-05	
1954	7.656417e-08	1.922311e-05	
1955	7.660417e-08	-3.19751e-05	
1956	7.664417e-08	2.037708e-05	
1957	7.668417e-08	-5.03843e-05	
1958	7.672417e-08	7.909331e-05	
1959	7.676417e-08	1.916005e-04	
1960	7.680417e-08	4.046533e-04	
1961	7.684417e-08	3.164163e-04	
1962	7.688417e-08	-1.23621e-04	
1963	7.692417e-08	-1.30206e-03	
1964	7.696417e-08	-9.81155e-04	
1965	7.700417e-08	-6.12546e-04	
1966	7.704417e-08	-8.52202e-04	
1967	7.708417e-08	2.901214e-04	
1968	7.712417e-08	5.740744e-04	

Index   time            cf              
--------------------------------------------------------------------------------
1969	7.716417e-08	1.952935e-04	
1970	7.720417e-08	1.399878e-04	
1971	7.724417e-08	-2.02247e-05	
1972	7.728417e-08	-3.22896e-05	
1973	7.732417e-08	-1.19422e-04	
1974	7.736417e-08	-4.21734e-05	
1975	7.740417e-08	-7.41150e-05	
1976	7.744417e-08	8.467130e-05	
1977	7.748417e-08	3.106152e-05	
1978	7.752417e-08	4.030600e-05	
1979	7.756417e-08	-3.00065e-05	
1980	7.760417e-08	3.037701e-05	
1981	7.764417e-08	-2.87095e-05	
1982	7.768417e-08	3.136777e-05	
1983	7.772417e-08	-2.91478e-05	
1984	7.776417e-08	3.114366e-05	
1985	7.780417e-08	-2.68853e-05	
1986	7.784417e-08	3.335499e-05	
1987	7.788417e-08	-3.09135e-05	
1988	7.792417e-08	2.554069e-05	
1989	7.796417e-08	-4.03374e-05	
1990	7.800417e-08	1.750475e-05	
1991	7.804417e-08	4.365141e-05	
1992	7.808417e-08	1.643973e-04	
1993	7.812417e-08	4.960039e-05	
1994	7.816417e-08	6.688616e-05	
1995	7.820417e-08	-5.00702e-06	
1996	7.824417e-08	4.417514e-05	
1997	7.828417e-08	-2.29594e-05	
1998	7.832417e-08	2.766505e-05	
1999	7.836417e-08	-5.15637e-05	
2000	7.840417e-08	-1.32179e-05	
2001	7.844417e-08	-7.35647e-05	
2002	7.848417e-08	-1.53227e-05	
2003	7.852417e-08	-6.92238e-05	
2004	7.856417e-08	-3.60772e-06	
2005	7.860417e-08	-4.65027e-05	
2006	7.864417e-08	2.555107e-05	
2007	7.868417e-08	-2.42982e-05	
2008	7.872417e-08	2.519560e-05	
2009	7.876417e-08	-3.28204e-05	
2010	7.880417e-08	2.245839e-05	
2011	7.884417e-08	-3.72695e-05	
2012	7.888417e-08	2.223877e-05	
2013	7.892417e-08	-3.58642e-05	
2014	7.896417e-08	2.495514e-05	
2015	7.900417e-08	-3.28671e-05	
2016	7.904417e-08	2.599274e-05	
2017	7.908417e-08	-3.11701e-05	
2018	7.912417e-08	2.771658e-05	
2019	7.916417e-08	-3.05131e-05	
2020	7.920417e-08	2.699829e-05	
2021	7.924417e-08	-3.06482e-05	
2022	7.928417e-08	2.981345e-05	
2023	7.932417e-08	-2.51208e-05	
2024	7.936417e-08	2.982590e-05	
2025	7.940417e-08	-3.02711e-05	
2026	7.944417e-08	3.206991e-05	

Index   time            cf              
--------------------------------------------------------------------------------
2027	7.948417e-08	-1.53791e-05	
2028	7.952417e-08	5.445286e-05	
2029	7.956417e-08	1.015069e-05	
2030	7.960417e-08	7.401299e-05	
2031	7.964417e-08	-1.77205e-04	
2032	7.968417e-08	-6.32038e-04	
2033	7.972417e-08	-9.03411e-04	
2034	7.976417e-08	5.861442e-05	
2035	7.980417e-08	1.053009e-03	
2036	7.984417e-08	1.317730e-03	
2037	7.988417e-08	9.711882e-04	
2038	7.992417e-08	5.227073e-04	
2039	7.996417e-08	-2.12598e-05	
2040	8.000417e-08	-3.69867e-05	
2041	8.004417e-08	-3.17245e-05	
2042	8.008417e-08	2.405807e-05	
2043	8.012417e-08	-7.94882e-05	
2044	8.016417e-08	-2.31881e-05	
2045	8.020417e-08	-7.54188e-05	
2046	8.024417e-08	-2.65132e-05	
2047	8.028417e-08	-7.52656e-05	
2048	8.032417e-08	6.442707e-08	
2049	8.036417e-08	-4.32810e-05	
2050	8.040417e-08	1.449076e-05	
2051	8.044417e-08	-3.93472e-05	
2052	8.048417e-08	2.292289e-05	
2053	8.052417e-08	-3.32712e-05	
2054	8.056417e-08	2.611720e-05	
2055	8.060417e-08	-2.98429e-05	
2056	8.064417e-08	2.507204e-05	
2057	8.068417e-08	-3.33348e-05	
2058	8.072417e-08	3.081478e-05	
2059	8.076417e-08	-1.82097e-05	
2060	8.080417e-08	3.578074e-05	
2061	8.084417e-08	-2.89098e-05	
2062	8.088417e-08	2.978955e-05	
2063	8.092417e-08	-2.99365e-05	
2064	8.096417e-08	5.770849e-06	
2065	8.100417e-08	-9.18520e-05	
2066	8.104417e-08	-7.51996e-05	
2067	8.108417e-08	-1.60909e-04	
2068	8.112417e-08	-1.54712e-04	
2069	8.116417e-08	-2.96985e-04	
2070	8.120417e-08	-1.66637e-04	
2071	8.124417e-08	4.444200e-05	
2072	8.128417e-08	2.760989e-04	
2073	8.132417e-08	1.928457e-04	
2074	8.136417e-08	1.122467e-04	
2075	8.140417e-08	-1.33339e-04	
2076	8.144417e-08	2.436684e-04	
2077	8.148417e-08	7.359403e-04	
2078	8.152417e-08	7.402022e-04	
2079	8.156417e-08	5.949659e-05	
2080	8.160417e-08	-4.50015e-04	
2081	8.164417e-08	-4.50654e-04	
2082	8.168417e-08	-2.09320e-04	
2083	8.172417e-08	-1.67557e-04	
2084	8.176417e-08	-4.31769e-05	

Index   time            cf              
--------------------------------------------------------------------------------
2085	8.180417e-08	-6.36442e-05	
2086	8.184417e-08	1.248597e-05	
2087	8.188417e-08	-3.37649e-05	
2088	8.192417e-08	2.935302e-05	
2089	8.196417e-08	-2.20432e-05	
2090	8.200417e-08	3.660438e-05	
2091	8.204417e-08	-2.34070e-05	
2092	8.208417e-08	2.158126e-05	
2093	8.212417e-08	-3.84567e-05	
2094	8.216417e-08	2.570090e-05	
2095	8.220417e-08	-3.81658e-05	
2096	8.224417e-08	7.260953e-06	
2097	8.228417e-08	2.740715e-05	
2098	8.232417e-08	2.573424e-04	
2099	8.236417e-08	3.515580e-04	
2100	8.240417e-08	3.607129e-04	
2101	8.244417e-08	-2.15323e-04	
2102	8.248417e-08	-1.29014e-03	
2103	8.252417e-08	-9.82989e-04	
2104	8.256417e-08	-5.74825e-04	
2105	8.260417e-08	-8.84102e-04	
2106	8.264417e-08	3.894817e-04	
2107	8.268417e-08	5.004210e-04	
2108	8.272417e-08	2.444734e-04	
2109	8.276417e-08	7.773137e-05	
2110	8.280417e-08	3.228436e-05	
2111	8.284417e-08	-9.20658e-05	
2112	8.288417e-08	-6.20285e-05	
2113	8.292417e-08	-9.85589e-05	
2114	8.296417e-08	-1.42298e-05	
2115	8.300417e-08	2.985606e-05	
2116	8.304417e-08	8.609595e-05	
2117	8.308417e-08	-1.87563e-05	
2118	8.312417e-08	2.665127e-05	
2119	8.316417e-08	-2.69306e-05	
2120	8.320417e-08	2.820640e-05	
2121	8.324417e-08	-2.61029e-05	
2122	8.328417e-08	2.777370e-05	
2123	8.332417e-08	-2.61482e-05	
2124	8.336417e-08	2.963674e-05	
2125	8.340417e-08	-2.39344e-05	
2126	8.344417e-08	2.618899e-05	
2127	8.348417e-08	-3.07545e-05	
2128	8.352417e-08	1.779818e-05	
2129	8.356417e-08	-4.30318e-05	
2130	8.360417e-08	7.973635e-05	
2131	8.364417e-08	1.042174e-04	
2132	8.368417e-08	1.207284e-04	
2133	8.372417e-08	1.291435e-05	
2134	8.376417e-08	5.416380e-05	
2135	8.380417e-08	-1.16196e-05	
2136	8.384417e-08	3.633763e-05	
2137	8.388417e-08	-2.60005e-05	
2138	8.392417e-08	9.004176e-06	
2139	8.396417e-08	-6.79141e-05	
2140	8.400417e-08	-1.90099e-05	
2141	8.404417e-08	-7.15812e-05	
2142	8.408417e-08	-1.44801e-05	

Index   time            cf              
--------------------------------------------------------------------------------
2143	8.412417e-08	-6.25680e-05	
2144	8.416417e-08	6.254299e-06	
2145	8.420417e-08	-3.38529e-05	
2146	8.424417e-08	3.263863e-05	
2147	8.428417e-08	-2.98722e-05	
2148	8.432417e-08	2.298505e-05	
2149	8.436417e-08	-3.30571e-05	
2150	8.440417e-08	1.853219e-05	
2151	8.444417e-08	-3.43977e-05	
2152	8.448417e-08	1.988360e-05	
2153	8.452417e-08	-3.18228e-05	
2154	8.456417e-08	2.287264e-05	
2155	8.460417e-08	-3.07179e-05	
2156	8.464417e-08	2.460455e-05	
2157	8.468417e-08	-2.88721e-05	
2158	8.472417e-08	2.524790e-05	
2159	8.476417e-08	-2.94491e-05	
2160	8.480417e-08	2.508085e-05	
2161	8.484417e-08	-2.64482e-05	
2162	8.488417e-08	3.064442e-05	
2163	8.492417e-08	-2.65998e-05	
2164	8.496417e-08	2.543727e-05	
2165	8.500417e-08	-2.39768e-05	
2166	8.504417e-08	4.063823e-05	
2167	8.508417e-08	-1.95006e-06	
2168	8.512417e-08	6.668856e-05	
2169	8.516417e-08	1.692836e-05	
2170	8.520417e-08	-1.29978e-04	
2171	8.524417e-08	-6.95676e-04	
2172	8.528417e-08	-8.40347e-04	
2173	8.532417e-08	2.514070e-05	
2174	8.536417e-08	1.119566e-03	
2175	8.540417e-08	1.258788e-03	
2176	8.544417e-08	1.019708e-03	
2177	8.548417e-08	4.553890e-04	
2178	8.552417e-08	3.025004e-05	
2179	8.556417e-08	-9.33739e-05	
2180	8.560417e-08	2.510250e-05	
2181	8.564417e-08	-3.32483e-05	
2182	8.568417e-08	-2.37697e-05	
2183	8.572417e-08	-7.90442e-05	
2184	8.576417e-08	-1.99221e-05	
2185	8.580417e-08	-8.23097e-05	
2186	8.584417e-08	-1.97557e-05	
2187	8.588417e-08	-5.49901e-05	
2188	8.592417e-08	1.178615e-05	
2189	8.596417e-08	-4.09283e-05	
2190	8.600417e-08	1.583596e-05	
2191	8.604417e-08	-3.23244e-05	
2192	8.608417e-08	2.163576e-05	
2193	8.612417e-08	-2.90777e-05	
2194	8.616417e-08	2.489633e-05	
2195	8.620417e-08	-2.92516e-05	
2196	8.624417e-08	2.127456e-05	
2197	8.628417e-08	-2.60392e-05	
2198	8.632417e-08	3.616253e-05	
2199	8.636417e-08	-1.84212e-05	
2200	8.640417e-08	2.669009e-05	

Index   time            cf              
--------------------------------------------------------------------------------
2201	8.644417e-08	-2.57625e-05	
2202	8.648417e-08	2.616017e-05	
2203	8.652417e-08	-4.34644e-05	
2204	8.656417e-08	-2.89340e-05	
2205	8.660417e-08	-1.24075e-04	
2206	8.664417e-08	-1.01930e-04	
2207	8.668417e-08	-1.95816e-04	
2208	8.672417e-08	-2.32095e-04	
2209	8.676417e-08	-2.53056e-04	
2210	8.680417e-08	4.963303e-05	
2211	8.684417e-08	2.043115e-04	
2212	8.688417e-08	2.648390e-04	
2213	8.692417e-08	7.978939e-05	
2214	8.696417e-08	-4.09134e-05	
2215	8.700417e-08	1.059025e-04	
2216	8.704417e-08	7.070832e-04	
2217	8.708417e-08	7.347364e-04	
2218	8.712417e-08	2.197413e-04	
2219	8.716417e-08	-4.58095e-04	
2220	8.720417e-08	-4.26763e-04	
2221	8.724417e-08	-2.77197e-04	
2222	8.728417e-08	-1.24351e-04	
2223	8.732417e-08	-1.03491e-04	
2224	8.736417e-08	-1.30433e-05	
2225	8.740417e-08	-4.31348e-05	
2226	8.744417e-08	1.928497e-05	
2227	8.748417e-08	-2.50327e-05	
2228	8.752417e-08	3.194042e-05	
2229	8.756417e-08	-1.77412e-05	
2230	8.760417e-08	3.037300e-05	
2231	8.764417e-08	-3.30526e-05	
2232	8.768417e-08	1.550829e-05	
2233	8.772417e-08	-2.78324e-05	
2234	8.776417e-08	1.465277e-05	
2235	8.780417e-08	-4.56600e-05	
2236	8.784417e-08	8.786391e-05	
2237	8.788417e-08	2.118128e-04	
2238	8.792417e-08	4.108535e-04	
2239	8.796417e-08	2.883610e-04	
2240	8.800417e-08	-1.92719e-04	
2241	8.804417e-08	-1.38491e-03	
2242	8.808417e-08	-8.80890e-04	
2243	8.812417e-08	-6.53164e-04	
2244	8.816417e-08	-7.94395e-04	
2245	8.820417e-08	3.790859e-04	
2246	8.824417e-08	5.351277e-04	
2247	8.828417e-08	1.834033e-04	
2248	8.832417e-08	1.253506e-04	
2249	8.836417e-08	-2.45465e-05	
2250	8.840417e-08	-4.24636e-05	
2251	8.844417e-08	-1.14546e-04	
2252	8.848417e-08	-4.61493e-05	
2253	8.852417e-08	-6.15560e-05	
2254	8.856417e-08	8.491668e-05	
2255	8.860417e-08	3.025995e-05	
2256	8.864417e-08	3.321083e-05	
2257	8.868417e-08	-2.66066e-05	
2258	8.872417e-08	2.590073e-05	

Index   time            cf              
--------------------------------------------------------------------------------
2259	8.876417e-08	-2.50287e-05	
2260	8.880417e-08	2.678240e-05	
2261	8.884417e-08	-2.56207e-05	
2262	8.888417e-08	2.683171e-05	
2263	8.892417e-08	-2.41002e-05	
2264	8.896417e-08	2.931501e-05	
2265	8.900417e-08	-2.69060e-05	
2266	8.904417e-08	2.295257e-05	
2267	8.908417e-08	-3.38322e-05	
2268	8.912417e-08	9.760487e-06	
2269	8.916417e-08	5.951520e-06	
2270	8.920417e-08	1.482079e-04	
2271	8.924417e-08	8.131936e-05	
2272	8.928417e-08	7.221028e-05	
2273	8.932417e-08	2.599591e-06	
2274	8.936417e-08	4.364817e-05	
2275	8.940417e-08	-1.49906e-05	
2276	8.944417e-08	3.067558e-05	
2277	8.948417e-08	-4.03373e-05	
2278	8.952417e-08	-1.36241e-05	
2279	8.956417e-08	-7.11164e-05	
2280	8.960417e-08	-1.93338e-05	
2281	8.964417e-08	-6.84576e-05	
2282	8.968417e-08	-1.25902e-05	
2283	8.972417e-08	-4.96114e-05	
2284	8.976417e-08	1.572113e-05	
2285	8.980417e-08	-2.06390e-05	
2286	8.984417e-08	2.483642e-05	
2287	8.988417e-08	-3.00944e-05	
2288	8.992417e-08	2.039417e-05	
2289	8.996417e-08	-3.41497e-05	
2290	9.000417e-08	1.766934e-05	
2291	9.004417e-08	-3.28443e-05	
2292	9.008417e-08	2.007158e-05	
2293	9.012417e-08	-2.99042e-05	
2294	9.016417e-08	2.122124e-05	
2295	9.020417e-08	-2.80694e-05	
2296	9.024417e-08	2.313397e-05	
2297	9.028417e-08	-2.73738e-05	
2298	9.032417e-08	2.258048e-05	
2299	9.036417e-08	-2.74124e-05	
2300	9.040417e-08	2.570251e-05	
2301	9.044417e-08	-2.18931e-05	
2302	9.048417e-08	2.546862e-05	
2303	9.052417e-08	-2.69760e-05	
2304	9.056417e-08	2.820644e-05	
2305	9.060417e-08	-1.16795e-05	
2306	9.064417e-08	5.072846e-05	
2307	9.068417e-08	1.413556e-05	
2308	9.072417e-08	6.912011e-05	
2309	9.076417e-08	-1.92276e-04	
2310	9.080417e-08	-6.52466e-04	
2311	9.084417e-08	-8.81862e-04	
2312	9.088417e-08	9.879828e-05	
2313	9.092417e-08	1.081190e-03	
2314	9.096417e-08	1.306765e-03	
2315	9.100417e-08	9.592076e-04	
2316	9.104417e-08	4.945313e-04	

Index   time            cf              
--------------------------------------------------------------------------------
2317	9.108417e-08	-2.86117e-05	
2318	9.112417e-08	-3.98435e-05	
2319	9.116417e-08	-2.57517e-05	
2320	9.120417e-08	1.789222e-05	
2321	9.124417e-08	-7.65284e-05	
2322	9.128417e-08	-2.69069e-05	
2323	9.132417e-08	-7.19774e-05	
2324	9.136417e-08	-3.05811e-05	
2325	9.140417e-08	-7.11947e-05	
2326	9.144417e-08	-3.23060e-06	
2327	9.148417e-08	-3.95864e-05	
2328	9.152417e-08	1.045347e-05	
2329	9.156417e-08	-3.57170e-05	
2330	9.160417e-08	1.907150e-05	
2331	9.164417e-08	-2.99206e-05	
2332	9.168417e-08	2.233516e-05	
2333	9.172417e-08	-2.67545e-05	
2334	9.176417e-08	2.287167e-05	
2335	9.180417e-08	-3.03250e-05	
2336	9.184417e-08	2.373818e-05	
2337	9.188417e-08	-1.64943e-05	
2338	9.192417e-08	3.395183e-05	
2339	9.196417e-08	-2.36709e-05	
2340	9.200417e-08	2.500712e-05	
2341	9.204417e-08	-2.44405e-05	
2342	9.208417e-08	1.336862e-05	
2343	9.212417e-08	-7.06167e-05	
2344	9.216417e-08	-6.56423e-05	
2345	9.220417e-08	-1.47842e-04	
2346	9.224417e-08	-1.32505e-04	
2347	9.228417e-08	-2.65306e-04	
2348	9.232417e-08	-2.29208e-04	
2349	9.236417e-08	-5.88274e-05	
[...]
10034	3.997642e-07	1.399999e+00	
10035	3.998042e-07	1.399998e+00	
10036	3.998442e-07	1.399999e+00	
10037	3.998842e-07	1.399998e+00	
10038	3.999242e-07	1.399999e+00	
10039	3.999642e-07	1.399998e+00	
10040	4.000042e-07	1.399999e+00	
10041	4.000442e-07	1.399998e+00	
10042	4.000842e-07	1.399999e+00	
10043	4.001242e-07	1.399998e+00	
10044	4.001642e-07	1.399999e+00	
10045	4.002042e-07	1.399998e+00	
10046	4.002442e-07	1.399999e+00	
10047	4.002842e-07	1.399998e+00	
10048	4.003242e-07	1.399999e+00	
10049	4.003642e-07	1.399998e+00	
10050	4.004042e-07	1.399999e+00	
10051	4.004442e-07	1.399998e+00	
10052	4.004842e-07	1.399999e+00	
10053	4.005242e-07	1.399998e+00	
10054	4.005642e-07	1.399999e+00	
10055	4.006042e-07	1.399998e+00	
10056	4.006442e-07	1.399999e+00	
10057	4.006842e-07	1.399998e+00	
10058	4.007242e-07	1.399999e+00	
10059	4.007642e-07	1.399998e+00	
10060	4.008042e-07	1.399999e+00	
10061	4.008442e-07	1.399998e+00	
10062	4.008842e-07	1.399999e+00	
10063	4.009242e-07	1.399998e+00	
10064	4.009642e-07	1.399999e+00	
10065	4.010042e-07	1.399998e+00	
10066	4.010442e-07	1.399999e+00	
10067	4.010842e-07	1.399998e+00	
10068	4.011242e-07	1.399999e+00	
10069	4.011642e-07	1.399998e+00	
10070	4.012042e-07	1.399999e+00	
10071	4.012442e-07	1.399998e+00	
10072	4.012842e-07	1.399999e+00	
10073	4.013242e-07	1.399998e+00	
10074	4.013642e-07	1.399999e+00	
10075	4.014042e-07	1.399998e+00	
10076	4.014442e-07	1.399999e+00	
10077	4.014842e-07	1.399998e+00	
10078	4.015242e-07	1.399999e+00	
10079	4.015642e-07	1.399998e+00	
10080	4.016042e-07	1.399999e+00	
10081	4.016442e-07	1.399998e+00	
10082	4.016842e-07	1.399999e+00	
10083	4.017242e-07	1.399998e+00	
10084	4.017642e-07	1.399999e+00	
10085	4.018042e-07	1.399998e+00	
10086	4.018442e-07	1.399999e+00	
10087	4.018842e-07	1.399998e+00	
10088	4.019242e-07	1.399999e+00	

Index   time            cf              
--------------------------------------------------------------------------------
10089	4.019642e-07	1.399998e+00	
10090	4.020042e-07	1.399999e+00	
10091	4.020442e-07	1.399998e+00	
10092	4.020842e-07	1.399999e+00	
10093	4.021242e-07	1.399998e+00	
10094	4.021642e-07	1.399999e+00	
10095	4.022042e-07	1.399998e+00	
10096	4.022442e-07	1.399999e+00	
10097	4.022842e-07	1.399998e+00	
10098	4.023242e-07	1.399999e+00	
10099	4.023642e-07	1.399998e+00	
10100	4.024042e-07	1.399999e+00	
10101	4.024442e-07	1.399998e+00	
10102	4.024842e-07	1.399999e+00	
10103	4.025242e-07	1.399998e+00	
10104	4.025642e-07	1.399999e+00	
10105	4.026042e-07	1.399998e+00	
10106	4.026442e-07	1.399999e+00	
10107	4.026842e-07	1.399998e+00	
10108	4.027242e-07	1.399999e+00	
10109	4.027642e-07	1.399998e+00	
10110	4.028042e-07	1.399999e+00	
10111	4.028442e-07	1.399998e+00	
10112	4.028842e-07	1.399999e+00	
10113	4.029242e-07	1.399998e+00	
10114	4.029642e-07	1.399999e+00	
10115	4.030042e-07	1.399998e+00	
10116	4.030442e-07	1.399999e+00	
10117	4.030842e-07	1.399998e+00	
10118	4.031242e-07	1.399999e+00	
10119	4.031642e-07	1.399998e+00	
10120	4.032042e-07	1.399999e+00	
10121	4.032442e-07	1.399998e+00	
10122	4.032842e-07	1.399999e+00	
10123	4.033242e-07	1.399998e+00	
10124	4.033642e-07	1.399999e+00	
10125	4.034042e-07	1.399998e+00	
10126	4.034442e-07	1.399999e+00	
10127	4.034842e-07	1.399998e+00	
10128	4.035242e-07	1.399999e+00	
10129	4.035642e-07	1.399998e+00	
10130	4.036042e-07	1.399999e+00	
10131	4.036442e-07	1.399998e+00	
10132	4.036842e-07	1.399999e+00	
10133	4.037242e-07	1.399998e+00	
10134	4.037642e-07	1.399999e+00	
10135	4.038042e-07	1.399998e+00	
10136	4.038442e-07	1.399999e+00	
10137	4.038842e-07	1.399998e+00	
10138	4.039242e-07	1.399999e+00	
10139	4.039642e-07	1.399998e+00	
10140	4.040042e-07	1.399999e+00	
10141	4.040442e-07	1.399998e+00	
10142	4.040842e-07	1.399999e+00	
10143	4.041242e-07	1.399998e+00	
10144	4.041642e-07	1.399999e+00	
10145	4.042042e-07	1.399998e+00	
10146	4.042442e-07	1.399999e+00	

Index   time            cf              
--------------------------------------------------------------------------------
10147	4.042842e-07	1.399998e+00	
10148	4.043242e-07	1.399999e+00	
10149	4.043642e-07	1.399998e+00	
10150	4.044042e-07	1.399999e+00	
10151	4.044442e-07	1.399998e+00	
10152	4.044842e-07	1.399999e+00	
10153	4.045242e-07	1.399998e+00	
10154	4.045642e-07	1.399999e+00	
10155	4.046042e-07	1.399998e+00	
10156	4.046442e-07	1.399999e+00	
10157	4.046842e-07	1.399998e+00	
10158	4.047242e-07	1.399999e+00	
10159	4.047642e-07	1.399998e+00	
10160	4.048042e-07	1.399999e+00	
10161	4.048442e-07	1.399998e+00	
10162	4.048842e-07	1.399999e+00	
10163	4.049242e-07	1.399998e+00	
10164	4.049642e-07	1.399999e+00	
10165	4.050042e-07	1.399998e+00	
10166	4.050442e-07	1.399999e+00	
10167	4.050842e-07	1.399998e+00	
10168	4.051242e-07	1.399999e+00	
10169	4.051642e-07	1.399998e+00	
10170	4.052042e-07	1.399999e+00	
10171	4.052442e-07	1.399998e+00	
10172	4.052842e-07	1.399999e+00	
10173	4.053242e-07	1.399998e+00	
10174	4.053642e-07	1.399999e+00	
10175	4.054042e-07	1.399998e+00	
10176	4.054442e-07	1.399999e+00	
10177	4.054842e-07	1.399998e+00	
10178	4.055242e-07	1.399999e+00	
10179	4.055642e-07	1.399998e+00	
10180	4.056042e-07	1.399999e+00	
10181	4.056442e-07	1.399998e+00	
10182	4.056842e-07	1.399999e+00	
10183	4.057242e-07	1.399998e+00	
10184	4.057642e-07	1.399999e+00	
10185	4.058042e-07	1.399998e+00	
10186	4.058442e-07	1.399999e+00	
10187	4.058842e-07	1.399998e+00	
10188	4.059242e-07	1.399999e+00	
10189	4.059642e-07	1.399998e+00	
10190	4.060042e-07	1.399999e+00	
10191	4.060442e-07	1.399998e+00	
10192	4.060842e-07	1.399999e+00	
10193	4.061242e-07	1.399998e+00	
10194	4.061642e-07	1.399999e+00	
10195	4.062042e-07	1.399998e+00	
10196	4.062442e-07	1.399999e+00	
10197	4.062842e-07	1.399998e+00	
10198	4.063242e-07	1.399999e+00	
10199	4.063642e-07	1.399998e+00	
10200	4.064042e-07	1.399999e+00	
10201	4.064442e-07	1.399998e+00	
10202	4.064842e-07	1.399999e+00	
10203	4.065242e-07	1.399998e+00	
10204	4.065642e-07	1.399999e+00	

Index   time            cf              
--------------------------------------------------------------------------------
10205	4.066042e-07	1.399998e+00	
10206	4.066442e-07	1.399999e+00	
10207	4.066842e-07	1.399998e+00	
10208	4.067242e-07	1.399999e+00	
10209	4.067642e-07	1.399998e+00	
10210	4.068042e-07	1.399999e+00	
10211	4.068442e-07	1.399998e+00	
10212	4.068842e-07	1.399999e+00	
10213	4.069242e-07	1.399998e+00	
10214	4.069642e-07	1.399999e+00	
10215	4.070042e-07	1.399998e+00	
10216	4.070442e-07	1.399999e+00	
10217	4.070842e-07	1.399998e+00	
10218	4.071242e-07	1.399999e+00	
10219	4.071642e-07	1.399998e+00	
10220	4.072042e-07	1.399999e+00	
10221	4.072442e-07	1.399998e+00	
10222	4.072842e-07	1.399999e+00	
10223	4.073242e-07	1.399998e+00	
10224	4.073642e-07	1.399999e+00	
10225	4.074042e-07	1.399998e+00	
10226	4.074442e-07	1.399999e+00	
10227	4.074842e-07	1.399998e+00	
10228	4.075242e-07	1.399999e+00	
10229	4.075642e-07	1.399998e+00	
10230	4.076042e-07	1.399999e+00	
10231	4.076442e-07	1.399998e+00	
10232	4.076842e-07	1.399999e+00	
10233	4.077242e-07	1.399998e+00	
10234	4.077642e-07	1.399999e+00	
10235	4.078042e-07	1.399998e+00	
10236	4.078442e-07	1.399999e+00	
10237	4.078842e-07	1.399998e+00	
10238	4.079242e-07	1.399999e+00	
10239	4.079642e-07	1.399998e+00	
10240	4.080042e-07	1.399999e+00	
10241	4.080442e-07	1.399998e+00	
10242	4.080842e-07	1.399999e+00	
10243	4.081242e-07	1.399998e+00	
10244	4.081642e-07	1.399999e+00	
10245	4.082042e-07	1.399998e+00	
10246	4.082442e-07	1.399999e+00	
10247	4.082842e-07	1.399998e+00	
10248	4.083242e-07	1.399999e+00	
10249	4.083642e-07	1.399998e+00	
10250	4.084042e-07	1.399999e+00	
10251	4.084442e-07	1.399998e+00	
10252	4.084842e-07	1.399999e+00	
10253	4.085242e-07	1.399998e+00	
10254	4.085642e-07	1.399999e+00	
10255	4.086042e-07	1.399998e+00	
10256	4.086442e-07	1.399999e+00	
10257	4.086842e-07	1.399998e+00	
10258	4.087242e-07	1.399999e+00	
10259	4.087642e-07	1.399998e+00	
10260	4.088042e-07	1.399999e+00	
10261	4.088442e-07	1.399998e+00	
10262	4.088842e-07	1.399999e+00	

Index   time            cf              
--------------------------------------------------------------------------------
10263	4.089242e-07	1.399998e+00	
10264	4.089642e-07	1.399999e+00	
10265	4.090042e-07	1.399998e+00	
10266	4.090442e-07	1.399999e+00	
10267	4.090842e-07	1.399998e+00	
10268	4.091242e-07	1.399999e+00	
10269	4.091642e-07	1.399998e+00	
10270	4.092042e-07	1.399999e+00	
10271	4.092442e-07	1.399998e+00	
10272	4.092842e-07	1.399999e+00	
10273	4.093242e-07	1.399998e+00	
10274	4.093642e-07	1.399999e+00	
10275	4.094042e-07	1.399998e+00	
10276	4.094442e-07	1.399999e+00	
10277	4.094842e-07	1.399998e+00	
10278	4.095242e-07	1.399999e+00	
10279	4.095642e-07	1.399998e+00	
10280	4.096042e-07	1.399999e+00	
10281	4.096442e-07	1.399998e+00	
10282	4.096842e-07	1.399999e+00	
10283	4.097242e-07	1.399998e+00	
10284	4.097642e-07	1.399999e+00	
10285	4.098042e-07	1.399998e+00	
10286	4.098442e-07	1.399999e+00	
10287	4.098842e-07	1.399998e+00	
10288	4.099242e-07	1.399999e+00	
10289	4.099642e-07	1.399998e+00	
10290	4.100042e-07	1.399999e+00	
10291	4.100442e-07	1.399998e+00	
10292	4.100842e-07	1.399999e+00	
10293	4.101242e-07	1.399998e+00	
10294	4.101642e-07	1.399999e+00	
10295	4.102042e-07	1.399998e+00	
10296	4.102442e-07	1.399999e+00	
10297	4.102842e-07	1.399998e+00	
10298	4.103242e-07	1.399999e+00	
10299	4.103642e-07	1.399998e+00	
10300	4.104042e-07	1.399999e+00	
10301	4.104442e-07	1.399998e+00	
10302	4.104842e-07	1.399999e+00	
10303	4.105242e-07	1.399998e+00	
10304	4.105642e-07	1.399999e+00	
10305	4.106042e-07	1.399998e+00	
10306	4.106442e-07	1.399999e+00	
10307	4.106842e-07	1.399998e+00	
10308	4.107242e-07	1.399999e+00	
10309	4.107642e-07	1.399998e+00	
10310	4.108042e-07	1.399999e+00	
10311	4.108442e-07	1.399998e+00	
10312	4.108842e-07	1.399999e+00	
10313	4.109242e-07	1.399998e+00	
10314	4.109642e-07	1.399999e+00	
10315	4.110042e-07	1.399998e+00	
10316	4.110442e-07	1.399999e+00	
10317	4.110842e-07	1.399998e+00	
10318	4.111242e-07	1.399999e+00	
10319	4.111642e-07	1.399998e+00	
10320	4.112042e-07	1.399999e+00	

Index   time            cf              
--------------------------------------------------------------------------------
10321	4.112442e-07	1.399998e+00	
10322	4.112842e-07	1.399999e+00	
10323	4.113242e-07	1.399998e+00	
10324	4.113642e-07	1.399999e+00	
10325	4.114042e-07	1.399998e+00	
10326	4.114442e-07	1.399999e+00	
10327	4.114842e-07	1.399998e+00	
10328	4.115242e-07	1.399999e+00	
10329	4.115642e-07	1.399998e+00	
10330	4.116042e-07	1.399999e+00	
10331	4.116442e-07	1.399998e+00	
10332	4.116842e-07	1.399999e+00	
10333	4.117242e-07	1.399998e+00	
10334	4.117642e-07	1.399999e+00	
10335	4.118042e-07	1.399998e+00	
10336	4.118442e-07	1.399999e+00	
10337	4.118842e-07	1.399998e+00	
10338	4.119242e-07	1.399999e+00	
10339	4.119642e-07	1.399998e+00	
10340	4.120042e-07	1.399999e+00	
10341	4.120442e-07	1.399998e+00	
10342	4.120842e-07	1.399999e+00	
10343	4.121242e-07	1.399998e+00	
10344	4.121642e-07	1.399999e+00	
10345	4.122042e-07	1.399998e+00	
10346	4.122442e-07	1.399999e+00	
10347	4.122842e-07	1.399998e+00	
10348	4.123242e-07	1.399999e+00	
10349	4.123642e-07	1.399998e+00	
10350	4.124042e-07	1.399999e+00	
10351	4.124442e-07	1.399998e+00	
10352	4.124842e-07	1.399999e+00	
10353	4.125242e-07	1.399998e+00	
10354	4.125642e-07	1.399999e+00	
10355	4.126042e-07	1.399998e+00	
10356	4.126442e-07	1.399999e+00	
10357	4.126842e-07	1.399998e+00	
10358	4.127242e-07	1.399999e+00	
10359	4.127642e-07	1.399998e+00	
10360	4.128042e-07	1.399999e+00	
10361	4.128442e-07	1.399998e+00	
10362	4.128842e-07	1.399999e+00	
10363	4.129242e-07	1.399998e+00	
10364	4.129642e-07	1.399999e+00	
10365	4.130042e-07	1.399998e+00	
10366	4.130442e-07	1.399999e+00	
10367	4.130842e-07	1.399998e+00	
10368	4.131242e-07	1.399999e+00	
10369	4.131642e-07	1.399998e+00	
10370	4.132042e-07	1.399999e+00	
10371	4.132442e-07	1.399998e+00	
10372	4.132842e-07	1.399999e+00	
10373	4.133242e-07	1.399998e+00	
10374	4.133642e-07	1.399999e+00	
10375	4.134042e-07	1.399998e+00	
10376	4.134442e-07	1.399999e+00	
10377	4.134842e-07	1.399998e+00	
10378	4.135242e-07	1.399999e+00	

Index   time            cf              
--------------------------------------------------------------------------------
10379	4.135642e-07	1.399998e+00	
10380	4.136042e-07	1.399999e+00	
10381	4.136442e-07	1.399998e+00	
10382	4.136842e-07	1.399999e+00	
10383	4.137242e-07	1.399998e+00	
10384	4.137642e-07	1.399999e+00	
10385	4.138042e-07	1.399998e+00	
10386	4.138442e-07	1.399999e+00	
10387	4.138842e-07	1.399998e+00	
10388	4.139242e-07	1.399999e+00	
10389	4.139642e-07	1.399998e+00	
10390	4.140042e-07	1.399999e+00	
10391	4.140442e-07	1.399998e+00	
10392	4.140842e-07	1.399999e+00	
10393	4.141242e-07	1.399998e+00	
10394	4.141642e-07	1.399999e+00	
10395	4.142042e-07	1.399998e+00	
10396	4.142442e-07	1.399999e+00	
10397	4.142842e-07	1.399998e+00	
10398	4.143242e-07	1.399999e+00	
10399	4.143642e-07	1.399998e+00	
10400	4.144042e-07	1.399999e+00	
10401	4.144442e-07	1.399998e+00	
10402	4.144842e-07	1.399999e+00	
10403	4.145242e-07	1.399998e+00	
10404	4.145642e-07	1.399999e+00	
10405	4.146042e-07	1.399998e+00	
10406	4.146442e-07	1.399999e+00	
10407	4.146842e-07	1.399998e+00	
10408	4.147242e-07	1.399999e+00	
10409	4.147642e-07	1.399998e+00	
10410	4.148042e-07	1.399999e+00	
10411	4.148442e-07	1.399998e+00	
10412	4.148842e-07	1.399999e+00	
10413	4.149242e-07	1.399998e+00	
10414	4.149642e-07	1.399999e+00	
10415	4.150042e-07	1.399998e+00	
10416	4.150442e-07	1.399999e+00	
10417	4.150842e-07	1.399998e+00	
10418	4.151242e-07	1.399999e+00	
10419	4.151642e-07	1.399998e+00	
10420	4.152042e-07	1.399999e+00	
10421	4.152442e-07	1.399998e+00	
10422	4.152842e-07	1.399999e+00	
10423	4.153242e-07	1.399998e+00	
10424	4.153642e-07	1.399999e+00	
10425	4.154042e-07	1.399998e+00	
10426	4.154442e-07	1.399999e+00	
10427	4.154842e-07	1.399998e+00	
10428	4.155242e-07	1.399999e+00	
10429	4.155642e-07	1.399998e+00	
10430	4.156042e-07	1.399999e+00	
10431	4.156442e-07	1.399998e+00	
10432	4.156842e-07	1.399999e+00	
10433	4.157242e-07	1.399998e+00	
10434	4.157642e-07	1.399999e+00	
10435	4.158042e-07	1.399998e+00	
10436	4.158442e-07	1.399999e+00	

Index   time            cf              
--------------------------------------------------------------------------------
10437	4.158842e-07	1.399998e+00	
10438	4.159242e-07	1.399999e+00	
10439	4.159642e-07	1.399998e+00	
10440	4.160042e-07	1.399999e+00	
10441	4.160442e-07	1.399998e+00	
10442	4.160842e-07	1.399999e+00	
10443	4.161242e-07	1.399998e+00	
10444	4.161642e-07	1.399999e+00	
10445	4.162042e-07	1.399998e+00	
10446	4.162442e-07	1.399999e+00	
10447	4.162842e-07	1.399998e+00	
10448	4.163242e-07	1.399999e+00	
10449	4.163642e-07	1.399998e+00	
10450	4.164042e-07	1.399999e+00	
10451	4.164442e-07	1.399998e+00	
10452	4.164842e-07	1.399999e+00	
10453	4.165242e-07	1.399998e+00	
10454	4.165642e-07	1.399999e+00	
10455	4.166042e-07	1.399998e+00	
10456	4.166442e-07	1.399999e+00	
10457	4.166842e-07	1.399998e+00	
10458	4.167242e-07	1.399999e+00	
10459	4.167642e-07	1.399998e+00	
10460	4.168042e-07	1.399999e+00	
10461	4.168442e-07	1.399998e+00	
10462	4.168842e-07	1.399999e+00	
10463	4.169242e-07	1.399998e+00	
10464	4.169642e-07	1.399999e+00	
10465	4.170042e-07	1.399998e+00	
10466	4.170442e-07	1.399999e+00	
10467	4.170842e-07	1.399998e+00	
10468	4.171242e-07	1.399999e+00	
10469	4.171642e-07	1.399998e+00	
10470	4.172042e-07	1.399999e+00	
10471	4.172442e-07	1.399998e+00	
10472	4.172842e-07	1.399999e+00	
10473	4.173242e-07	1.399998e+00	
10474	4.173642e-07	1.399999e+00	
10475	4.174042e-07	1.399998e+00	
10476	4.174442e-07	1.399999e+00	
10477	4.174842e-07	1.399998e+00	
10478	4.175242e-07	1.399999e+00	
10479	4.175642e-07	1.399998e+00	
10480	4.176042e-07	1.399999e+00	
10481	4.176442e-07	1.399998e+00	
10482	4.176842e-07	1.399999e+00	
10483	4.177242e-07	1.399998e+00	
10484	4.177642e-07	1.399999e+00	
10485	4.178042e-07	1.399998e+00	
10486	4.178442e-07	1.399999e+00	
10487	4.178842e-07	1.399998e+00	
10488	4.179242e-07	1.399999e+00	
10489	4.179642e-07	1.399998e+00	
10490	4.180042e-07	1.399999e+00	
10491	4.180442e-07	1.399998e+00	
10492	4.180842e-07	1.399999e+00	
10493	4.181242e-07	1.399998e+00	
10494	4.181642e-07	1.399999e+00	

Index   time            cf              
--------------------------------------------------------------------------------
10495	4.182042e-07	1.399998e+00	
10496	4.182442e-07	1.399999e+00	
10497	4.182842e-07	1.399998e+00	
10498	4.183242e-07	1.399999e+00	
10499	4.183642e-07	1.399998e+00	
10500	4.184042e-07	1.399999e+00	
10501	4.184442e-07	1.399998e+00	
10502	4.184842e-07	1.399999e+00	
10503	4.185242e-07	1.399998e+00	
10504	4.185642e-07	1.399999e+00	
10505	4.186042e-07	1.399998e+00	
10506	4.186442e-07	1.399999e+00	
10507	4.186842e-07	1.399998e+00	
10508	4.187242e-07	1.399999e+00	
10509	4.187642e-07	1.399998e+00	
10510	4.188042e-07	1.399999e+00	
10511	4.188442e-07	1.399998e+00	
10512	4.188842e-07	1.399999e+00	
10513	4.189242e-07	1.399998e+00	
10514	4.189642e-07	1.399999e+00	
10515	4.190042e-07	1.399998e+00	
10516	4.190442e-07	1.399999e+00	
10517	4.190842e-07	1.399998e+00	
10518	4.191242e-07	1.399999e+00	
10519	4.191642e-07	1.399998e+00	
10520	4.192042e-07	1.399999e+00	
10521	4.192442e-07	1.399998e+00	
10522	4.192842e-07	1.399999e+00	
10523	4.193242e-07	1.399998e+00	
10524	4.193642e-07	1.399999e+00	
10525	4.194042e-07	1.399998e+00	
10526	4.194442e-07	1.399999e+00	
10527	4.194842e-07	1.399998e+00	
10528	4.195242e-07	1.399999e+00	
10529	4.195642e-07	1.399998e+00	
10530	4.196042e-07	1.399999e+00	
10531	4.196442e-07	1.399998e+00	
10532	4.196842e-07	1.399999e+00	
10533	4.197242e-07	1.399998e+00	
10534	4.197642e-07	1.399999e+00	
10535	4.198042e-07	1.399998e+00	
10536	4.198442e-07	1.399999e+00	
10537	4.198842e-07	1.399998e+00	
10538	4.199242e-07	1.399999e+00	
10539	4.199642e-07	1.399998e+00	
10540	4.200000e-07	1.399999e+00	
plbr                =  3.147303e-06 from=  1.000000e-09 to=  5.900546e-08
plar                =  2.755798e-04 from=  6.100000e-08 to=  2.000042e-07
phbr                =  2.387374e-04 from=  1.000000e-09 to=  5.900546e-08
phar                =  1.131617e-05 from=  6.100000e-08 to=  2.000042e-07
ds1.0               =  1.400000e+00
ds1.1               =  -3.103165e-09
ds1.2               =  1.400000e+00
ds1.3               =  4.320355e-09
ds1.4               =  1.400000e+00
ds1.5               =  -2.644536e-08
ds1.6               =  -4.333428e-08
ds1.7               =  -3.431638e-08
ds1.8               =  -6.853024e-08
ds1.9               =  -3.489232e-08
ds1.10              =  -5.103103e-08
ds1.11              =  -2.219364e-08
ds1.12              =  -3.731830e-08
ds1.13              =  5.603910e-08
ds1.14              =  -2.654141e-08
ds1.15              =  -1.782806e-08
ds2.0               =  -1.990104e-07
ds2.1               =  -6.555723e-09
ds2.2               =  1.400000e+00
ds2.3               =  1.469351e-08
ds2.4               =  1.400000e+00
ds2.5               =  -4.674400e-08
ds2.6               =  -2.163627e-08
ds2.7               =  -4.621517e-08
ds2.8               =  -1.567061e-08
ds2.9               =  -2.594899e-08
ds2.10              =  -5.227407e-09
ds2.11              =  -9.189372e-09
ds2.12              =  -1.659694e-08
ds2.13              =  -3.509725e-08
ds2.14              =  -9.499896e-09
ds2.15              =  -8.500150e-09
dm.0                =  1.919156e-08
dm.1                =  -1.055014e-07
dm.2                =  -1.175400e-08
dm.3                =  1.400000e+00
dm.4                =  -2.924905e-08
dm.5                =  1.400000e+00
dm.6                =  -2.411583e-08
dm.7                =  -1.163529e-08
dm.8                =  -2.508890e-08
dm.9                =  4.290771e-09
dm.10               =  -2.288267e-09
dm.11               =  2.587337e-09
dm.12               =  -1.983981e-08
dm.13               =  -3.717757e-09
dm.14               =  -6.757101e-09
dm.15               =  -2.516078e-08
dm.16               =  -9.183295e-09
dm.17               =  -4.510801e-08
dm.18               =  -1.437844e-08
dm.19               =  5.910633e-09
Note: No ".plot", ".print", or ".fourier" lines; no simulations run
